File U:\Public\VBA Projects\E01 VBA v6.1 Tie - Mesh.xlsx.$2k was saved on 6/6/18 at 17:10:18
 
TABLE:  "ACTIVE DEGREES OF FREEDOM"
   UX=Yes   UY=Yes   UZ=Yes   RX=Yes   RY=Yes   RZ=Yes
 
TABLE:  "ANALYSIS OPTIONS"
   Solver=Advanced   SolverProc=Auto   Force32Bit=No   StiffCase=None   GeomMod=No
 
TABLE:  "AREA SECTION ASSIGNMENTS"
   Area=1   Section="PL 50"   MatProp=Default
   Area=2   Section="PL 22"   MatProp=Default
   Area=3   Section="PL 22"   MatProp=Default
   Area=5   Section="PL 22"   MatProp=Default
   Area=6   Section="PL 25"   MatProp=Default
   Area=57   Section="PL 22"   MatProp=Default
   Area=58   Section="PL 16"   MatProp=Default
   Area=59   Section="PL 22"   MatProp=Default
   Area=60   Section="PL 25"   MatProp=Default
   Area=61   Section="PL 40"   MatProp=Default
   Area=62   Section="PL 40"   MatProp=Default
   Area=63   Section="PL 40"   MatProp=Default
   Area=64   Section="PL 40"   MatProp=Default
   Area=65   Section="PL 25"   MatProp=Default
   Area=66   Section="PL 25"   MatProp=Default
   Area=67   Section="PL 25"   MatProp=Default
   Area=68   Section="PL 25"   MatProp=Default
   Area=69   Section="PL 25"   MatProp=Default
   Area=70   Section="PL 25"   MatProp=Default
   Area=71   Section="PL 25"   MatProp=Default
# ... 76 like lines cut
   Area=187   Section=ASEC1   MatProp=Default
   Area=188   Section=ASEC1   MatProp=Default
   Area=189   Section="PL 45"   MatProp=Default
   Area=190   Section="PL 45"   MatProp=Default
   Area=191   Section="PL 45"   MatProp=Default
   Area=192   Section="PL 45"   MatProp=Default
   Area=193   Section="PL 45"   MatProp=Default
   Area=194   Section="PL 45"   MatProp=Default
   Area=195   Section="PL 45"   MatProp=Default
   Area=196   Section="PL 45"   MatProp=Default
   Area=197   Section="PL 45"   MatProp=Default
   Area=198   Section="PL 45"   MatProp=Default
   Area=199   Section="PL 25"   MatProp=Default
   Area=200   Section="PL 25"   MatProp=Default
   Area=201   Section="PL 25"   MatProp=Default
   Area=202   Section="PL 25"   MatProp=Default
   Area=203   Section="PL 25"   MatProp=Default
   Area=204   Section=ASEC1   MatProp=Default
   Area=205   Section="PL 40"   MatProp=Default
   Area=206   Section="PL 40"   MatProp=Default
   Area=207   Section="PL 40"   MatProp=Default
   Area=208   Section="PL 40"   MatProp=Default
   Area=209   Section="PL 40"   MatProp=Default
   Area=210   Section="PL 25"   MatProp=Default
 
TABLE:  "AREA SECTION PROPERTIES"
   Section=ASEC1   Material=A992Fy50   MatAngle=0   AreaType=Shell   Type=Shell-Thin   DrillDOF=Yes   Thickness=250   BendThick=250   Color=Blue   F11Mod=1   F22Mod=1   F12Mod=1   M11Mod=1   M22Mod=1   M12Mod=1   V13Mod=1   V23Mod=1 _
        MMod=1   WMod=1   Notes="Added 6/5/2018 5:56:19 PM"
   Section="PL 16"   Material=A992Fy50   MatAngle=0   AreaType=Shell   Type=Shell-Thin   DrillDOF=Yes   Thickness=16   BendThick=16   Color=Green   F11Mod=1   F22Mod=1   F12Mod=1   M11Mod=1   M22Mod=1   M12Mod=1   V13Mod=1   V23Mod=1 _
        MMod=1   WMod=1   Notes="Added 6/5/2018 6:04:33 PM"
   Section="PL 22"   Material=A992Fy50   MatAngle=0   AreaType=Shell   Type=Shell-Thin   DrillDOF=Yes   Thickness=22   BendThick=22   Color=Green   F11Mod=1   F22Mod=1   F12Mod=1   M11Mod=1   M22Mod=1   M12Mod=1   V13Mod=1   V23Mod=1 _
        MMod=1   WMod=1   Notes="Added 6/5/2018 6:06:10 PM"
   Section="PL 25"   Material=A992Fy50   MatAngle=0   AreaType=Shell   Type=Shell-Thin   DrillDOF=Yes   Thickness=25   BendThick=25   Color=Green   F11Mod=1   F22Mod=1   F12Mod=1   M11Mod=1   M22Mod=1   M12Mod=1   V13Mod=1   V23Mod=1 _
        MMod=1   WMod=1   Notes="Added 6/6/2018 12:18:54 PM"
   Section="PL 28"   Material=A992Fy50   MatAngle=0   AreaType=Shell   Type=Shell-Thin   DrillDOF=Yes   Thickness=28   BendThick=28   Color=Green   F11Mod=1   F22Mod=1   F12Mod=1   M11Mod=1   M22Mod=1   M12Mod=1   V13Mod=1   V23Mod=1 _
        MMod=1   WMod=1   Notes="Added 6/5/2018 6:06:27 PM"
   Section="PL 35"   Material=A992Fy50   MatAngle=0   AreaType=Shell   Type=Shell-Thin   DrillDOF=Yes   Thickness=35   BendThick=35   Color=Green   F11Mod=1   F22Mod=1   F12Mod=1   M11Mod=1   M22Mod=1   M12Mod=1   V13Mod=1   V23Mod=1 _
        MMod=1   WMod=1
   Section="PL 38"   Material=A992Fy50   MatAngle=0   AreaType=Shell   Type=Shell-Thin   DrillDOF=Yes   Thickness=38   BendThick=38   Color=Green   F11Mod=1   F22Mod=1   F12Mod=1   M11Mod=1   M22Mod=1   M12Mod=1   V13Mod=1   V23Mod=1 _
        MMod=1   WMod=1
   Section="PL 40"   Material=A992Fy50   MatAngle=0   AreaType=Shell   Type=Shell-Thin   DrillDOF=Yes   Thickness=40   BendThick=40   Color=16317953   F11Mod=1   F22Mod=1   F12Mod=1   M11Mod=1   M22Mod=1   M12Mod=1   V13Mod=1   V23Mod=1 _
        MMod=1   WMod=1   Notes="Added 6/5/2018 6:07:01 PM"
   Section="PL 45"   Material=A992Fy50   MatAngle=0   AreaType=Shell   Type=Shell-Thin   DrillDOF=Yes   Thickness=45   BendThick=45   Color=Green   F11Mod=1   F22Mod=1   F12Mod=1   M11Mod=1   M22Mod=1   M12Mod=1   V13Mod=1   V23Mod=1 _
        MMod=1   WMod=1   Notes="Added 6/6/2018 12:16:48 PM"
   Section="PL 50"   Material=A992Fy50   MatAngle=0   AreaType=Shell   Type=Shell-Thin   DrillDOF=Yes   Thickness=50   BendThick=50   Color=10419203   F11Mod=1   F22Mod=1   F12Mod=1   M11Mod=1   M22Mod=1   M12Mod=1   V13Mod=1   V23Mod=1 _
        MMod=1   WMod=1   Notes="Added 6/5/2018 6:07:22 PM"
 
TABLE:  "AREA SECTION PROPERTY DESIGN PARAMETERS"
   Section=ASEC1   RebarMat=None   RebarOpt=Default
   Section="PL 16"   RebarMat=None   RebarOpt=Default
   Section="PL 22"   RebarMat=None   RebarOpt=Default
   Section="PL 25"   RebarMat=None   RebarOpt=Default
   Section="PL 28"   RebarMat=None   RebarOpt=Default
   Section="PL 35"   RebarMat=None   RebarOpt=Default
   Section="PL 38"   RebarMat=None   RebarOpt=Default
   Section="PL 40"   RebarMat=None   RebarOpt=Default
   Section="PL 45"   RebarMat=None   RebarOpt=Default
   Section="PL 50"   RebarMat=None   RebarOpt=Default
 
TABLE:  "AREA SECTION PROPERTY - TIME DEPENDENT"
   Section=ASEC1   TypeSize=Auto   AutoSFSize=1
   Section="PL 16"   TypeSize=Auto   AutoSFSize=1
   Section="PL 22"   TypeSize=Auto   AutoSFSize=1
   Section="PL 25"   TypeSize=Auto   AutoSFSize=1
   Section="PL 28"   TypeSize=Auto   AutoSFSize=1
   Section="PL 35"   TypeSize=Auto   AutoSFSize=1
   Section="PL 38"   TypeSize=Auto   AutoSFSize=1
   Section="PL 40"   TypeSize=Auto   AutoSFSize=1
   Section="PL 45"   TypeSize=Auto   AutoSFSize=1
   Section="PL 50"   TypeSize=Auto   AutoSFSize=1
 
TABLE:  "AUTO WAVE 3 - WAVE CHARACTERISTICS - GENERAL"
   WaveChar=Default   WaveType="From Theory"   KinFactor=1   SWaterDepth=45000   WaveHeight=18000   WavePeriod=12   WaveTheory=Linear
 
TABLE:  "CASE - MODAL 1 - GENERAL"
   Case=MODAL   ModeType=Eigen   MaxNumModes=12   MinNumModes=1   EigenShift=0   EigenCutoff=0   EigenTol=0.000000001   AutoShift=Yes
 
TABLE:  "CASE - STATIC 1 - LOAD ASSIGNMENTS"
   Case=DEAD   LoadType="Load pattern"   LoadName=DEAD   LoadSF=1
 
TABLE:  "CONNECTIVITY - AREA"
   Area=1   Joint1=405   Joint2=315   Joint3=316   Joint4=407
   Area=2   Joint1=321   Joint2=379   Joint3=1   Joint4=416
   Area=3   Joint1=380   Joint2=322   Joint3=416   Joint4=1
   Area=5   Joint1=401   Joint2=397   Joint3=399   Joint4=404
   Area=6   Joint1=401   Joint2=367   Joint3=368   Joint4=397
   Area=57   Joint1=321   Joint2=124   Joint3=125   Joint4=322
   Area=58   Joint1=126   Joint2=416   Joint3=415   Joint4=127
   Area=59   Joint1=128   Joint2=129   Joint3=130   Joint4=131
   Area=60   Joint1=132   Joint2=133   Joint3=134   Joint4=135
   Area=61   Joint1=136   Joint2=137   Joint3=138   Joint4=139
   Area=62   Joint1=140   Joint2=141   Joint3=142   Joint4=143
   Area=63   Joint1=144   Joint2=145   Joint3=146   Joint4=147
   Area=64   Joint1=148   Joint2=149   Joint3=150   Joint4=151
   Area=65   Joint1=152   Joint2=153   Joint3=154   Joint4=155
   Area=66   Joint1=134   Joint2=133   Joint3=153   Joint4=154
   Area=67   Joint1=135   Joint2=132   Joint3=152   Joint4=155
   Area=68   Joint1=156   Joint2=157   Joint3=158   Joint4=159
   Area=69   Joint1=160   Joint2=161   Joint3=162   Joint4=163
   Area=70   Joint1=162   Joint2=158   Joint3=159   Joint4=163
   Area=71   Joint1=161   Joint2=157   Joint3=156   Joint4=160
# ... 88 like lines cut
   Area=199   Joint1=405   Joint2=406   Joint3=313
   Area=200   Joint1=405   Joint2=292   Joint3=289   Joint4=406
   Area=201   Joint1=407   Joint2=288   Joint3=285   Joint4=408
   Area=202   Joint1=407   Joint2=408   Joint3=314
   Area=203   Joint1=409   Joint2=410   Joint3=411
   Area=204   Joint1=379   Joint2=412   Joint3=413   Joint4=414
   Area=205   Joint1=415   Joint2=416   Joint3=344   Joint4=417
   Area=206   Joint1=417   Joint2=344   Joint3=418   Joint4=419
   Area=207   Joint1=420   Joint2=419   Joint3=418   Joint4=421
   Area=208   Joint1=422   Joint2=421   Joint3=420   Joint4=423
   Area=209   Joint1=424   Joint2=425   Joint3=422   Joint4=423
   Area=210   Joint1=410   Joint2=342   Joint3=343   Joint4=409
 
TABLE:  "CONNECTIVITY - FRAME"
   Frame=4   JointI=394   JointJ=426   IsCurved=No
   Frame=5   JointI=426   JointJ=396   IsCurved=No
   Frame=6   JointI=389   JointJ=426   IsCurved=No
   Frame=7   JointI=426   JointJ=391   IsCurved=No
 
TABLE:  "COORDINATE SYSTEMS"
   Name=GLOBAL   Type=Cartesian   X=0   Y=0   Z=0   AboutZ=0   AboutY=0   AboutX=0
 
TABLE:  "DATABASE DOCUMENTATION"
 
TABLE:  "DATABASE FORMAT TYPES"
   UnitsCurr=Yes   OverrideE=No
 
TABLE:  "FRAME AUTO MESH ASSIGNMENTS"
   Frame=4   AutoMesh=Yes   AtJoints=Yes   AtFrames=No   NumSegments=0   MaxLength=0   MaxDegrees=0
   Frame=5   AutoMesh=Yes   AtJoints=Yes   AtFrames=No   NumSegments=0   MaxLength=0   MaxDegrees=0
   Frame=6   AutoMesh=Yes   AtJoints=Yes   AtFrames=No   NumSegments=0   MaxLength=0   MaxDegrees=0
   Frame=7   AutoMesh=Yes   AtJoints=Yes   AtFrames=No   NumSegments=0   MaxLength=0   MaxDegrees=0
 
TABLE:  "FRAME DESIGN PROCEDURES"
   Frame=4   DesignProc="From Material"
   Frame=5   DesignProc="From Material"
   Frame=6   DesignProc="From Material"
   Frame=7   DesignProc="From Material"
 
TABLE:  "FRAME LOAD TRANSFER OPTIONS"
   Frame=4   Transfer=Yes
   Frame=5   Transfer=Yes
   Frame=6   Transfer=Yes
   Frame=7   Transfer=Yes
 
TABLE:  "FRAME OUTPUT STATION ASSIGNMENTS"
   Frame=4   StationType=MinNumSta   MinNumSta=3   AddAtElmInt=Yes   AddAtPtLoad=Yes
   Frame=5   StationType=MinNumSta   MinNumSta=3   AddAtElmInt=Yes   AddAtPtLoad=Yes
   Frame=6   StationType=MinNumSta   MinNumSta=3   AddAtElmInt=Yes   AddAtPtLoad=Yes
   Frame=7   StationType=MinNumSta   MinNumSta=3   AddAtElmInt=Yes   AddAtPtLoad=Yes
 
TABLE:  "FRAME SECTION ASSIGNMENTS"
   Frame=4   AutoSelect=N.A.   AnalSect=FSEC1   MatProp=Default
   Frame=5   AutoSelect=N.A.   AnalSect=FSEC1   MatProp=Default
   Frame=6   AutoSelect=N.A.   AnalSect=FSEC1   MatProp=Default
   Frame=7   AutoSelect=N.A.   AnalSect=FSEC1   MatProp=Default
 
TABLE:  "FRAME SECTION PROPERTIES 01 - GENERAL"
   SectionName=FSEC1   Material=A992Fy50   Shape="I/Wide Flange"   t3=304.8   t2=127   tf=9.652   tw=6.35   t2b=127   tfb=9.652   Area=4264.5076   TorsConst=96511.7678053953   I33=65724174.702235   I22=3301257.17301008   I23=0   AS2=1935.48 _
        AS3=2043.00666666667   S33=431260.98885981   S22=51988.3019371667   Z33=491187.4950424   Z22=80716.532115   R33=124.144683132414   R22=27.8230817990979   Color=Cyan   FromFile=No   AMod=1   A2Mod=1   A3Mod=1   JMod=1   I2Mod=1 _
        I3Mod=1   MMod=1   WMod=1   Notes="Added 6/5/2018 5:56:59 PM"
 
TABLE:  "FRAME SECTION PROPERTIES 13 - TIME DEPENDENT"
   SectionName=FSEC1   TypeSize=Auto   AutoSFSize=1
 
TABLE:  "FUNCTION - PLOT FUNCTIONS"
   PlotFunc="Input Energy"   Type=Energy   Component=Input   Mode=All
 
TABLE:  "FUNCTION - POWER SPECTRAL DENSITY - USER"
   Name=UNIFPSD   Frequency=0   Value=1
   Name=UNIFPSD   Frequency=1   Value=1
 
TABLE:  "FUNCTION - RESPONSE SPECTRUM - USER"
   Name=UNIFRS   Period=0   Accel=1   FuncDamp=0.05
   Name=UNIFRS   Period=1   Accel=1
 
TABLE:  "FUNCTION - STEADY STATE - USER"
   Name=UNIFSS   Frequency=0   Value=1
   Name=UNIFSS   Frequency=1   Value=1
 
TABLE:  "FUNCTION - TIME HISTORY - USER"
   Name=RAMPTH   Time=0   Value=0
   Name=RAMPTH   Time=1   Value=1
   Name=RAMPTH   Time=4   Value=1
   Name=UNIFTH   Time=0   Value=1
   Name=UNIFTH   Time=1   Value=1
 
TABLE:  "GRID LINES"
   CoordSys=GLOBAL   AxisDir=X   GridID=A   XRYZCoord=0   LineType=Primary   LineColor=Gray8Dark   Visible=Yes   BubbleLoc=End   AllVisible=Yes   BubbleSize=0.25
   CoordSys=GLOBAL   AxisDir=Y   GridID=1   XRYZCoord=0   LineType=Primary   LineColor=Gray8Dark   Visible=Yes   BubbleLoc=Start
   CoordSys=GLOBAL   AxisDir=Z   GridID=Z1   XRYZCoord=0   LineType=Primary   LineColor=Gray8Dark   Visible=Yes   BubbleLoc=End
 
TABLE:  "GROUPS 1 - DEFINITIONS"
   GroupName=All   Selection=Yes   SectionCut=Yes   Steel=Yes   Concrete=Yes   Aluminum=Yes   ColdFormed=Yes   Stage=Yes   Bridge=Yes   AutoSeismic=No   AutoWind=No   SelDesSteel=No   SelDesAlum=No   SelDesCold=No   MassWeight=Yes   Color=Red
   GroupName=DXFIN   Selection=Yes   SectionCut=Yes   Steel=Yes   Concrete=Yes   Aluminum=Yes   ColdFormed=Yes   Stage=Yes   Bridge=Yes   AutoSeismic=No   AutoWind=No   SelDesSteel=No   SelDesAlum=No   SelDesCold=No   MassWeight=Yes   Color=Black
   GroupName=T14A   Selection=Yes   SectionCut=Yes   Steel=Yes   Concrete=Yes   Aluminum=Yes   ColdFormed=Yes   Stage=Yes   Bridge=Yes   AutoSeismic=No   AutoWind=No   SelDesSteel=No   SelDesAlum=No   SelDesCold=No   MassWeight=Yes   Color=8421631
   GroupName=T14B   Selection=Yes   SectionCut=Yes   Steel=Yes   Concrete=Yes   Aluminum=Yes   ColdFormed=Yes   Stage=Yes   Bridge=Yes   AutoSeismic=No   AutoWind=No   SelDesSteel=No   SelDesAlum=No   SelDesCold=No   MassWeight=Yes   Color=Yellow
   GroupName=T14C   Selection=Yes   SectionCut=Yes   Steel=Yes   Concrete=Yes   Aluminum=Yes   ColdFormed=Yes   Stage=Yes   Bridge=Yes   AutoSeismic=No   AutoWind=No   SelDesSteel=No   SelDesAlum=No   SelDesCold=No   MassWeight=Yes   Color=Gray8Dark
   GroupName=T18   Selection=Yes   SectionCut=Yes   Steel=Yes   Concrete=Yes   Aluminum=Yes   ColdFormed=Yes   Stage=Yes   Bridge=Yes   AutoSeismic=No   AutoWind=No   SelDesSteel=No   SelDesAlum=No   SelDesCold=No   MassWeight=Yes   Color=Blue
   GroupName=T13B   Selection=Yes   SectionCut=Yes   Steel=Yes   Concrete=Yes   Aluminum=Yes   ColdFormed=Yes   Stage=Yes   Bridge=Yes   AutoSeismic=No   AutoWind=No   SelDesSteel=No   SelDesAlum=No   SelDesCold=No   MassWeight=Yes   Color=Green
   GroupName=T13A   Selection=Yes   SectionCut=Yes   Steel=Yes   Concrete=Yes   Aluminum=Yes   ColdFormed=Yes   Stage=Yes   Bridge=Yes   AutoSeismic=No   AutoWind=No   SelDesSteel=No   SelDesAlum=No   SelDesCold=No   MassWeight=Yes   Color=Cyan
   GroupName=T15B   Selection=Yes   SectionCut=Yes   Steel=Yes   Concrete=Yes   Aluminum=Yes   ColdFormed=Yes   Stage=Yes   Bridge=Yes   AutoSeismic=No   AutoWind=No   SelDesSteel=No   SelDesAlum=No   SelDesCold=No   MassWeight=Yes   Color=Red
   GroupName=T15A   Selection=Yes   SectionCut=Yes   Steel=Yes   Concrete=Yes   Aluminum=Yes   ColdFormed=Yes   Stage=Yes   Bridge=Yes   AutoSeismic=No   AutoWind=No   SelDesSteel=No   SelDesAlum=No   SelDesCold=No   MassWeight=Yes   Color=Magenta
   GroupName=T22   Selection=Yes   SectionCut=Yes   Steel=Yes   Concrete=Yes   Aluminum=Yes   ColdFormed=Yes   Stage=Yes   Bridge=Yes   AutoSeismic=No   AutoWind=No   SelDesSteel=No   SelDesAlum=No   SelDesCold=No   MassWeight=Yes   Color=Yellow
   GroupName=T23   Selection=Yes   SectionCut=Yes   Steel=Yes   Concrete=Yes   Aluminum=Yes   ColdFormed=Yes   Stage=Yes   Bridge=Yes   AutoSeismic=No   AutoWind=No   SelDesSteel=No   SelDesAlum=No   SelDesCold=No   MassWeight=Yes   Color=Gray8Dark
   GroupName=D14   Selection=Yes   SectionCut=Yes   Steel=Yes   Concrete=Yes   Aluminum=Yes   ColdFormed=Yes   Stage=Yes   Bridge=Yes   AutoSeismic=No   AutoWind=No   SelDesSteel=No   SelDesAlum=No   SelDesCold=No   MassWeight=Yes   Color=Blue
   GroupName=D20   Selection=Yes   SectionCut=Yes   Steel=Yes   Concrete=Yes   Aluminum=Yes   ColdFormed=Yes   Stage=Yes   Bridge=Yes   AutoSeismic=No   AutoWind=No   SelDesSteel=No   SelDesAlum=No   SelDesCold=No   MassWeight=Yes   Color=Green
   GroupName=T20   Selection=Yes   SectionCut=Yes   Steel=Yes   Concrete=Yes   Aluminum=Yes   ColdFormed=Yes   Stage=Yes   Bridge=Yes   AutoSeismic=No   AutoWind=No   SelDesSteel=No   SelDesAlum=No   SelDesCold=No   MassWeight=Yes   Color=Cyan
   GroupName=T21   Selection=Yes   SectionCut=Yes   Steel=Yes   Concrete=Yes   Aluminum=Yes   ColdFormed=Yes   Stage=Yes   Bridge=Yes   AutoSeismic=No   AutoWind=No   SelDesSteel=No   SelDesAlum=No   SelDesCold=No   MassWeight=Yes   Color=Red
   GroupName=D23   Selection=Yes   SectionCut=Yes   Steel=Yes   Concrete=Yes   Aluminum=Yes   ColdFormed=Yes   Stage=Yes   Bridge=Yes   AutoSeismic=No   AutoWind=No   SelDesSteel=No   SelDesAlum=No   SelDesCold=No   MassWeight=Yes   Color=Magenta
   GroupName=D22   Selection=Yes   SectionCut=Yes   Steel=Yes   Concrete=Yes   Aluminum=Yes   ColdFormed=Yes   Stage=Yes   Bridge=Yes   AutoSeismic=No   AutoWind=No   SelDesSteel=No   SelDesAlum=No   SelDesCold=No   MassWeight=Yes   Color=Yellow
   GroupName=D21   Selection=Yes   SectionCut=Yes   Steel=Yes   Concrete=Yes   Aluminum=Yes   ColdFormed=Yes   Stage=Yes   Bridge=Yes   AutoSeismic=No   AutoWind=No   SelDesSteel=No   SelDesAlum=No   SelDesCold=No   MassWeight=Yes   Color=Gray8Dark
   GroupName=PL38   Selection=Yes   SectionCut=Yes   Steel=Yes   Concrete=Yes   Aluminum=Yes   ColdFormed=Yes   Stage=Yes   Bridge=Yes   AutoSeismic=No   AutoWind=No   SelDesSteel=No   SelDesAlum=No   SelDesCold=No   MassWeight=Yes   Color=Blue
   GroupName=PL25   Selection=Yes   SectionCut=Yes   Steel=Yes   Concrete=Yes   Aluminum=Yes   ColdFormed=Yes   Stage=Yes   Bridge=Yes   AutoSeismic=No   AutoWind=No   SelDesSteel=No   SelDesAlum=No   SelDesCold=No   MassWeight=Yes   Color=Green
   GroupName=T27   Selection=Yes   SectionCut=Yes   Steel=Yes   Concrete=Yes   Aluminum=Yes   ColdFormed=Yes   Stage=Yes   Bridge=Yes   AutoSeismic=No   AutoWind=No   SelDesSteel=No   SelDesAlum=No   SelDesCold=No   MassWeight=Yes   Color=Cyan
   GroupName=T24   Selection=Yes   SectionCut=Yes   Steel=Yes   Concrete=Yes   Aluminum=Yes   ColdFormed=Yes   Stage=Yes   Bridge=Yes   AutoSeismic=No   AutoWind=No   SelDesSteel=No   SelDesAlum=No   SelDesCold=No   MassWeight=Yes   Color=Red
   GroupName=DXFIN-1   Selection=Yes   SectionCut=Yes   Steel=Yes   Concrete=Yes   Aluminum=Yes   ColdFormed=Yes   Stage=Yes   Bridge=Yes   AutoSeismic=No   AutoWind=No   SelDesSteel=No   SelDesAlum=No   SelDesCold=No   MassWeight=Yes   Color=Black
   GroupName=DXFIN-2   Selection=Yes   SectionCut=Yes   Steel=Yes   Concrete=Yes   Aluminum=Yes   ColdFormed=Yes   Stage=Yes   Bridge=Yes   AutoSeismic=No   AutoWind=No   SelDesSteel=No   SelDesAlum=No   SelDesCold=No   MassWeight=Yes   Color=Black
   GroupName=T26   Selection=Yes   SectionCut=Yes   Steel=Yes   Concrete=Yes   Aluminum=Yes   ColdFormed=Yes   Stage=Yes   Bridge=Yes   AutoSeismic=No   AutoWind=No   SelDesSteel=No   SelDesAlum=No   SelDesCold=No   MassWeight=Yes   Color=Blue
   GroupName=D13   Selection=Yes   SectionCut=Yes   Steel=Yes   Concrete=Yes   Aluminum=Yes   ColdFormed=Yes   Stage=Yes   Bridge=Yes   AutoSeismic=No   AutoWind=No   SelDesSteel=No   SelDesAlum=No   SelDesCold=No   MassWeight=Yes   Color=Green
   GroupName=T17   Selection=Yes   SectionCut=Yes   Steel=Yes   Concrete=Yes   Aluminum=Yes   ColdFormed=Yes   Stage=Yes   Bridge=Yes   AutoSeismic=No   AutoWind=No   SelDesSteel=No   SelDesAlum=No   SelDesCold=No   MassWeight=Yes   Color=Cyan
   GroupName=D19   Selection=Yes   SectionCut=Yes   Steel=Yes   Concrete=Yes   Aluminum=Yes   ColdFormed=Yes   Stage=Yes   Bridge=Yes   AutoSeismic=No   AutoWind=No   SelDesSteel=No   SelDesAlum=No   SelDesCold=No   MassWeight=Yes   Color=Red
   GroupName=D16   Selection=Yes   SectionCut=Yes   Steel=Yes   Concrete=Yes   Aluminum=Yes   ColdFormed=Yes   Stage=Yes   Bridge=Yes   AutoSeismic=No   AutoWind=No   SelDesSteel=No   SelDesAlum=No   SelDesCold=No   MassWeight=Yes   Color=Magenta
   GroupName=03_InnerStrut   Selection=Yes   SectionCut=Yes   Steel=Yes   Concrete=Yes   Aluminum=Yes   ColdFormed=Yes   Stage=Yes   Bridge=Yes   AutoSeismic=No   AutoWind=No   SelDesSteel=No   SelDesAlum=No   SelDesCold=No   MassWeight=Yes   Color=Yellow
 
TABLE:  "GROUPS 2 - ASSIGNMENTS"
   GroupName=T14A   ObjectType=Area   ObjectLabel=156
   GroupName=T14B   ObjectType=Area   ObjectLabel=155
   GroupName=T14C   ObjectType=Area   ObjectLabel=154
   GroupName=T14C   ObjectType=Area   ObjectLabel=161
   GroupName=T18   ObjectType=Area   ObjectLabel=189
   GroupName=T18   ObjectType=Area   ObjectLabel=190
   GroupName=T18   ObjectType=Area   ObjectLabel=191
   GroupName=T18   ObjectType=Area   ObjectLabel=192
   GroupName=T18   ObjectType=Area   ObjectLabel=193
   GroupName=T18   ObjectType=Area   ObjectLabel=194
   GroupName=T18   ObjectType=Area   ObjectLabel=195
   GroupName=T18   ObjectType=Area   ObjectLabel=196
   GroupName=T18   ObjectType=Area   ObjectLabel=197
   GroupName=T18   ObjectType=Area   ObjectLabel=198
   GroupName=T13B   ObjectType=Area   ObjectLabel=141
   GroupName=T13B   ObjectType=Area   ObjectLabel=142
   GroupName=T13A   ObjectType=Area   ObjectLabel=199
   GroupName=T13A   ObjectType=Area   ObjectLabel=200
   GroupName=T13A   ObjectType=Area   ObjectLabel=201
   GroupName=T13A   ObjectType=Area   ObjectLabel=202
   GroupName=T15B   ObjectType=Area   ObjectLabel=143
   GroupName=T15A   ObjectType=Area   ObjectLabel=1
   GroupName=T15A   ObjectType=Area   ObjectLabel=157
   GroupName=T22   ObjectType=Area   ObjectLabel=179
   GroupName=T23   ObjectType=Area   ObjectLabel=180
   GroupName=D14   ObjectType=Area   ObjectLabel=205
   GroupName=D14   ObjectType=Area   ObjectLabel=206
   GroupName=D14   ObjectType=Area   ObjectLabel=207
   GroupName=D14   ObjectType=Area   ObjectLabel=208
   GroupName=D14   ObjectType=Area   ObjectLabel=209
   GroupName=D20   ObjectType=Area   ObjectLabel=185
   GroupName=D20   ObjectType=Area   ObjectLabel=186
   GroupName=T20   ObjectType=Area   ObjectLabel=2
   GroupName=T20   ObjectType=Area   ObjectLabel=3
   GroupName=T20   ObjectType=Area   ObjectLabel=57
   GroupName=T21   ObjectType=Area   ObjectLabel=160
   GroupName=D23   ObjectType=Area   ObjectLabel=181
   GroupName=D22   ObjectType=Area   ObjectLabel=172
   GroupName=D22   ObjectType=Area   ObjectLabel=203
   GroupName=D22   ObjectType=Area   ObjectLabel=210
   GroupName=D21   ObjectType=Area   ObjectLabel=158
   GroupName=D21   ObjectType=Area   ObjectLabel=159
   GroupName=PL38   ObjectType=Area   ObjectLabel=182
   GroupName=PL38   ObjectType=Area   ObjectLabel=183
   GroupName=PL25   ObjectType=Joint   ObjectLabel=124
   GroupName=PL25   ObjectType=Joint   ObjectLabel=125
   GroupName=PL25   ObjectType=Joint   ObjectLabel=126
   GroupName=PL25   ObjectType=Joint   ObjectLabel=127
   GroupName=PL25   ObjectType=Joint   ObjectLabel=128
   GroupName=PL25   ObjectType=Joint   ObjectLabel=129
   GroupName=PL25   ObjectType=Joint   ObjectLabel=130
   GroupName=PL25   ObjectType=Joint   ObjectLabel=131
   GroupName=PL25   ObjectType=Joint   ObjectLabel=132
   GroupName=PL25   ObjectType=Joint   ObjectLabel=133
   GroupName=PL25   ObjectType=Joint   ObjectLabel=134
   GroupName=PL25   ObjectType=Joint   ObjectLabel=135
   GroupName=PL25   ObjectType=Joint   ObjectLabel=152
   GroupName=PL25   ObjectType=Joint   ObjectLabel=153
   GroupName=PL25   ObjectType=Joint   ObjectLabel=154
   GroupName=PL25   ObjectType=Joint   ObjectLabel=155
   GroupName=PL25   ObjectType=Joint   ObjectLabel=156
   GroupName=PL25   ObjectType=Joint   ObjectLabel=157
   GroupName=PL25   ObjectType=Joint   ObjectLabel=158
   GroupName=PL25   ObjectType=Joint   ObjectLabel=159
# ... 38 like lines cut
   GroupName=PL25   ObjectType=Area   ObjectLabel=60
   GroupName=PL25   ObjectType=Area   ObjectLabel=65
   GroupName=PL25   ObjectType=Area   ObjectLabel=66
   GroupName=PL25   ObjectType=Area   ObjectLabel=67
   GroupName=PL25   ObjectType=Area   ObjectLabel=68
   GroupName=PL25   ObjectType=Area   ObjectLabel=69
   GroupName=PL25   ObjectType=Area   ObjectLabel=70
   GroupName=PL25   ObjectType=Area   ObjectLabel=71
   GroupName=PL25   ObjectType=Area   ObjectLabel=73
   GroupName=PL25   ObjectType=Area   ObjectLabel=74
   GroupName=PL25   ObjectType=Area   ObjectLabel=75
   GroupName=PL25   ObjectType=Area   ObjectLabel=76
   GroupName=PL25   ObjectType=Area   ObjectLabel=77
   GroupName=PL25   ObjectType=Area   ObjectLabel=78
   GroupName=PL25   ObjectType=Area   ObjectLabel=79
   GroupName=PL25   ObjectType=Area   ObjectLabel=80
   GroupName=PL25   ObjectType=Area   ObjectLabel=83
   GroupName=PL25   ObjectType=Area   ObjectLabel=84
   GroupName=PL25   ObjectType=Area   ObjectLabel=85
   GroupName=PL25   ObjectType=Area   ObjectLabel=86
# ... 41 like lines cut
   GroupName=T27   ObjectType=Area   ObjectLabel=5
   GroupName=T24   ObjectType=Area   ObjectLabel=6
   GroupName=T26   ObjectType=Area   ObjectLabel=81
   GroupName=D13   ObjectType=Area   ObjectLabel=58
   GroupName=T17   ObjectType=Area   ObjectLabel=82
   GroupName=T17   ObjectType=Area   ObjectLabel=109
   GroupName=D19   ObjectType=Area   ObjectLabel=59
   GroupName=D19   ObjectType=Area   ObjectLabel=72
   GroupName=D16   ObjectType=Area   ObjectLabel=61
   GroupName=D16   ObjectType=Area   ObjectLabel=62
   GroupName=D16   ObjectType=Area   ObjectLabel=63
   GroupName=D16   ObjectType=Area   ObjectLabel=64
 
TABLE:  "JOINT COORDINATES"
   Joint=1   CoordSys=GLOBAL   CoordType=Cartesian   XorR=-3572.145631   Y=0   Z=-500.034518   SpecialJt=No
   Joint=2   CoordSys=GLOBAL   CoordType=Cartesian   XorR=-5540.778404   Y=-1718   Z=-3640.315649   SpecialJt=Yes
   Joint=3   CoordSys=GLOBAL   CoordType=Cartesian   XorR=-1649.972799   Y=1236   Z=-1804.461722   SpecialJt=Yes
   Joint=4   CoordSys=GLOBAL   CoordType=Cartesian   XorR=-2449.972799   Y=1236   Z=-2310.913335   SpecialJt=Yes
   Joint=5   CoordSys=GLOBAL   CoordType=Cartesian   XorR=-1649.972799   Y=1236   Z=-250.034518   SpecialJt=Yes
   Joint=6   CoordSys=GLOBAL   CoordType=Cartesian   XorR=-2449.972799   Y=1236   Z=-250.034518   SpecialJt=Yes
   Joint=124   CoordSys=GLOBAL   CoordType=Cartesian   XorR=-15772.289274   Y=-1636   Z=-500.034518   SpecialJt=No
   Joint=125   CoordSys=GLOBAL   CoordType=Cartesian   XorR=-15772.289274   Y=1636   Z=-500.034518   SpecialJt=No
   Joint=126   CoordSys=GLOBAL   CoordType=Cartesian   XorR=-15772.289274   Y=0   Z=-500.034518   SpecialJt=No
   Joint=127   CoordSys=GLOBAL   CoordType=Cartesian   XorR=-15772.289274   Y=0   Z=500.021837   SpecialJt=No
   Joint=128   CoordSys=GLOBAL   CoordType=Cartesian   XorR=-5031.789274   Y=-1636   Z=500.021837   SpecialJt=No
   Joint=129   CoordSys=GLOBAL   CoordType=Cartesian   XorR=-5031.789274   Y=1636   Z=500.021837   SpecialJt=No
   Joint=130   CoordSys=GLOBAL   CoordType=Cartesian   XorR=-5031.789274   Y=1636   Z=-500.034518   SpecialJt=No
   Joint=131   CoordSys=GLOBAL   CoordType=Cartesian   XorR=-5031.789274   Y=-1636   Z=-500.034518   SpecialJt=No
   Joint=132   CoordSys=GLOBAL   CoordType=Cartesian   XorR=-5231.789274   Y=-75   Z=312.465482   SpecialJt=No
   Joint=133   CoordSys=GLOBAL   CoordType=Cartesian   XorR=-6156.789274   Y=-75   Z=312.465482   SpecialJt=No
   Joint=134   CoordSys=GLOBAL   CoordType=Cartesian   XorR=-6156.789274   Y=75   Z=312.465482   SpecialJt=No
   Joint=135   CoordSys=GLOBAL   CoordType=Cartesian   XorR=-5231.789274   Y=75   Z=312.465482   SpecialJt=No
   Joint=136   CoordSys=GLOBAL   CoordType=Cartesian   XorR=2.72010000007867E-02   Y=-650   Z=500.021837   SpecialJt=No
   Joint=137   CoordSys=GLOBAL   CoordType=Cartesian   XorR=-2449.972799   Y=-650   Z=500.021837   SpecialJt=No
   Joint=138   CoordSys=GLOBAL   CoordType=Cartesian   XorR=-2449.972799   Y=-650   Z=-224.978163   SpecialJt=No
   Joint=139   CoordSys=GLOBAL   CoordType=Cartesian   XorR=2.72010000007867E-02   Y=-650   Z=-224.978163   SpecialJt=No
   Joint=140   CoordSys=GLOBAL   CoordType=Cartesian   XorR=2.72010000007867E-02   Y=650   Z=500.021837   SpecialJt=No
   Joint=141   CoordSys=GLOBAL   CoordType=Cartesian   XorR=-2449.972799   Y=650   Z=500.021837   SpecialJt=No
   Joint=142   CoordSys=GLOBAL   CoordType=Cartesian   XorR=-2449.972799   Y=650   Z=-224.978163   SpecialJt=No
   Joint=143   CoordSys=GLOBAL   CoordType=Cartesian   XorR=2.72010000007867E-02   Y=650   Z=-224.978163   SpecialJt=No
# ... 224 like lines cut
 
TABLE:  "JOINT PATTERN DEFINITIONS"
   Pattern=Default
 
TABLE:  "LOAD CASE DEFINITIONS"
   Case=DEAD   Type=LinStatic   InitialCond=Zero   DesTypeOpt="Prog Det"   DesignType=DEAD   DesActOpt="Prog Det"   DesignAct=Non-Composite   AutoType=None   RunCase=Yes
   Case=MODAL   Type=LinModal   InitialCond=Zero   DesTypeOpt="Prog Det"   DesignType=OTHER   DesActOpt="Prog Det"   DesignAct=Other   AutoType=None   RunCase=Yes
 
TABLE:  "LOAD PATTERN DEFINITIONS"
   LoadPat=DEAD   DesignType=DEAD   SelfWtMult=1
 
TABLE:  "MASS SOURCE"
   MassSource=MSSSRC1   Elements=Yes   Masses=Yes   Loads=No   IsDefault=Yes
 
TABLE:  "MATERIAL PROPERTIES 01 - GENERAL"
   Material=4000Psi   Type=Concrete   SymType=Isotropic   TempDepend=No   Color=Red   Notes="Customary f'c 4000 psi 6/5/2018 5:55:34 PM"
   Material=A992Fy50   Type=Steel   SymType=Isotropic   TempDepend=No   Color=Cyan   Notes="ASTM A992 Grade 50 6/5/2018 5:55:34 PM"
 
TABLE:  "MATERIAL PROPERTIES 02 - BASIC MECHANICAL PROPERTIES"
   Material=4000Psi   UnitWeight=2.35631216161854E-08   UnitMass=2.40276960558926E-12   E1=24.8555780600518   G12=10.3564908583549   U12=0.2   A1=0.0000099
   Material=A992Fy50   UnitWeight=7.69728639422648E-08   UnitMass=7.84904737995992E-12   E1=199.947978795958   G12=76.9030687676761   U12=0.3   A1=0.0000117
 
TABLE:  "MATERIAL PROPERTIES 03A - STEEL DATA"
   Material=A992Fy50   Fy=0.344737894475789   Fu=0.448159262818526   EffFy=0.379211683923368   EffFu=0.492975189100378   SSCurveOpt=Simple   SSHysType=Kinematic   SHard=0.015   SMax=0.11   SRup=0.17   FinalSlope=-0.1
 
TABLE:  "MATERIAL PROPERTIES 03B - CONCRETE DATA"
   Material=4000Psi   Fc=2.75790315580631E-02   LtWtConc=No   SSCurveOpt=Mander   SSHysType=Takeda   SFc=0.00221914   SCap=0.005   FinalSlope=-0.1   FAngle=0   DAngle=0
 
TABLE:  "MATERIAL PROPERTIES 06 - DAMPING PARAMETERS"
   Material=4000Psi   ModalRatio=0   VisMass=0   VisStiff=0   HysMass=0   HysStiff=0
   Material=A992Fy50   ModalRatio=0   VisMass=0   VisStiff=0   HysMass=0   HysStiff=0
 
TABLE:  "OPTIONS - COLORS - DISPLAY"
   DeviceType=Screen   Points=Blue   LinesFrame=Blue   LinesFrmDL=Blue   LinesCable=Green   LinesTendon=Green   SpringLinks=Green   Restraints=Green   Releases=Green   Axes=Cyan   Text=Black   ShadowLines=Gray8Dark   GuideLines=Gray8Dark _
        Highlight=Red   Selection=10504778   AreaFillBot=Red   AreaFillTop=16744703   AreaFillSd=Red   AreaEdge=DarkRed   SolidF1=Red   SolidF2=Blue   SolidF3=Green   SolidF4=Yellow   SolidF5=White   SolidF6=Cyan   SolidEdge=DarkRed _
        Floor=Gray4   Background=White   BGLowLeft=White   BGLowRight=White   BGUpRight=White   Darkness=0.5
   DeviceType=Printer   Points=Gray8Dark   LinesFrame=Black   LinesFrmDL=Gray4   LinesCable=Black   LinesTendon=Black   SpringLinks=Gray8Dark   Restraints=Gray8Dark   Releases=Gray4   Axes=Black   Text=Black   ShadowLines=Gray4 _
        GuideLines=Gray4   Highlight=Black   Selection=Black   AreaFillBot=Gray4   AreaFillTop=Gray8Dark   AreaFillSd=Gray4   AreaEdge=Black   SolidF1=Gray1Light   SolidF2=Gray2   SolidF3=Gray3   SolidF4=Gray4   SolidF5=Gray5 _
        SolidF6=Gray6   SolidEdge=Black   Floor=Gray4   Background=White   BGLowLeft=White   BGLowRight=White   BGUpRight=White   Darkness=0.5
   DeviceType="Color Printer"   Points=Blue   LinesFrame=Blue   LinesFrmDL=Blue   LinesCable=Green   LinesTendon=Green   SpringLinks=Green   Restraints=Green   Releases=Green   Axes=Cyan   Text=Black   ShadowLines=Gray8Dark _
        GuideLines=Gray8Dark   Highlight=Red   Selection=10504778   AreaFillBot=Red   AreaFillTop=16744703   AreaFillSd=Red   AreaEdge=DarkRed   SolidF1=Red   SolidF2=Blue   SolidF3=Green   SolidF4=Yellow   SolidF5=White   SolidF6=Cyan _
        SolidEdge=DarkRed   Floor=Gray4   Background=White   BGLowLeft=White   BGLowRight=White   BGUpRight=White   Darkness=0.5
 
TABLE:  "OPTIONS - COLORS - OUTPUT"
   DeviceType=Screen   Contour1=13107400   Contour2=6553828   Contour3=Red   Contour4=16639   Contour5=Orange   Contour6=43775   Contour7=54527   Contour8=Yellow   Contour9=65408   Contour10=Green   Contour11=8453888   Contour12=Cyan _
        Contour13=16755200   Contour14=16733440   Contour15=Blue   Transpare=0.5   Ratio1=Cyan   Ratio2=Green   Ratio3=Yellow   Ratio4=Orange   Ratio5=Red   RatioNotD=Gray4   RatioNotC=Red   RatioVal1=0.5   RatioVal2=0.7   RatioVal3=0.9 _
        RatioVal4=1   DFillPos=Blue   DFillNeg=Red   DFillRPos=Green   DFillRNeg=Green
   DeviceType=Printer   Contour1=Black   Contour2=3158064   Contour3=4210752   Contour4=5263440   Contour5=6316128   Contour6=7368816   Contour7=Gray8Dark   Contour8=Gray7   Contour9=Gray6   Contour10=Gray5   Contour11=Gray4 _
        Contour12=Gray3   Contour13=Gray2   Contour14=Gray1Light   Contour15=White   Transpare=0   Ratio1=Gray2   Ratio2=Gray4   Ratio3=Gray8Dark   Ratio4=4210752   Ratio5=Black   RatioNotD=Gray4   RatioNotC=Black   RatioVal1=0.5 _
        RatioVal2=0.7   RatioVal3=0.9   RatioVal4=1   DFillPos=Gray8Dark   DFillNeg=Gray8Dark   DFillRPos=4210752   DFillRNeg=4210752
   DeviceType="Color Printer"   Contour1=13107400   Contour2=6553828   Contour3=Red   Contour4=16639   Contour5=Orange   Contour6=43775   Contour7=54527   Contour8=Yellow   Contour9=65408   Contour10=Green   Contour11=8453888 _
        Contour12=Cyan   Contour13=16755200   Contour14=16733440   Contour15=Blue   Transpare=0   Ratio1=Cyan   Ratio2=Green   Ratio3=Yellow   Ratio4=Orange   Ratio5=Red   RatioNotD=Gray4   RatioNotC=Red   RatioVal1=0.5   RatioVal2=0.7 _
        RatioVal3=0.9   RatioVal4=1   DFillPos=Blue   DFillNeg=Red   DFillRPos=Green   DFillRNeg=Green
 
TABLE:  "OVERWRITES - STEEL DESIGN - AISC 360-10"
   Frame=4   DesignSect="Program Determined"   FrameType="Program Determined"   Fy=0   RLLF=0   AreaRatio=0   XLMajor=0   XLMinor=0   XLLTB=0   K1Major=0   K1Minor=0   K2Major=0   K2Minor=0   KLTB=0   CmMajor=0   CmMinor=0   Cb=0 _
        B1Major=0   B1Minor=0   B2Major=0   B2Minor=0   HSSReduceT="Program Determined"   HSSWelding="Program Determined"   Omega0=0   Ry=0   Pnc=0   Pnt=0   Mn3=0   Mn2=0   Vn2=0   Vn3=0   CheckDefl="Program Determined" _
        DeflType="Program Determined"   DLRat=0   SDLAndLLRat=0   LLRat=0   TotalRat=0   NetRat=0   DLAbs=0   SDLAndLLAbs=0   LLAbs=0   TotalAbs=0   NetAbs=0   SpecCamber=0   DCLimit=0
   Frame=5   DesignSect="Program Determined"   FrameType="Program Determined"   Fy=0   RLLF=0   AreaRatio=0   XLMajor=0   XLMinor=0   XLLTB=0   K1Major=0   K1Minor=0   K2Major=0   K2Minor=0   KLTB=0   CmMajor=0   CmMinor=0   Cb=0 _
        B1Major=0   B1Minor=0   B2Major=0   B2Minor=0   HSSReduceT="Program Determined"   HSSWelding="Program Determined"   Omega0=0   Ry=0   Pnc=0   Pnt=0   Mn3=0   Mn2=0   Vn2=0   Vn3=0   CheckDefl="Program Determined" _
        DeflType="Program Determined"   DLRat=0   SDLAndLLRat=0   LLRat=0   TotalRat=0   NetRat=0   DLAbs=0   SDLAndLLAbs=0   LLAbs=0   TotalAbs=0   NetAbs=0   SpecCamber=0   DCLimit=0
   Frame=6   DesignSect="Program Determined"   FrameType="Program Determined"   Fy=0   RLLF=0   AreaRatio=0   XLMajor=0   XLMinor=0   XLLTB=0   K1Major=0   K1Minor=0   K2Major=0   K2Minor=0   KLTB=0   CmMajor=0   CmMinor=0   Cb=0 _
        B1Major=0   B1Minor=0   B2Major=0   B2Minor=0   HSSReduceT="Program Determined"   HSSWelding="Program Determined"   Omega0=0   Ry=0   Pnc=0   Pnt=0   Mn3=0   Mn2=0   Vn2=0   Vn3=0   CheckDefl="Program Determined" _
        DeflType="Program Determined"   DLRat=0   SDLAndLLRat=0   LLRat=0   TotalRat=0   NetRat=0   DLAbs=0   SDLAndLLAbs=0   LLAbs=0   TotalAbs=0   NetAbs=0   SpecCamber=0   DCLimit=0
   Frame=7   DesignSect="Program Determined"   FrameType="Program Determined"   Fy=0   RLLF=0   AreaRatio=0   XLMajor=0   XLMinor=0   XLLTB=0   K1Major=0   K1Minor=0   K2Major=0   K2Minor=0   KLTB=0   CmMajor=0   CmMinor=0   Cb=0 _
        B1Major=0   B1Minor=0   B2Major=0   B2Minor=0   HSSReduceT="Program Determined"   HSSWelding="Program Determined"   Omega0=0   Ry=0   Pnc=0   Pnt=0   Mn3=0   Mn2=0   Vn2=0   Vn3=0   CheckDefl="Program Determined" _
        DeflType="Program Determined"   DLRat=0   SDLAndLLRat=0   LLRat=0   TotalRat=0   NetRat=0   DLAbs=0   SDLAndLLAbs=0   LLAbs=0   TotalAbs=0   NetAbs=0   SpecCamber=0   DCLimit=0
 
TABLE:  "PREFERENCES - ALUMINUM DESIGN - AA-ASD 2000"
   THDesign=Envelopes   FrameType="Moment Frame"   SRatioLimit=1   MaxIter=1   LatFact=1.33333333333333   UseLatFact=No   Bridge=No
 
TABLE:  "PREFERENCES - COLD FORMED DESIGN - AISI-ASD96"
   THDesign=Envelopes   FrameType="Braced Frame"   SRatioLimit=1   MaxIter=1   OmegaBS=1.67   OmegaBUS=1.67   OmegaBLTB=1.67   OmegaVS=1.67   OmegaVNS=1.5   OmegaT=1.67   OmegaC=1.8
 
TABLE:  "PREFERENCES - CONCRETE DESIGN - ACI 318-11"
   THDesign=Envelopes   NumCurves=24   NumPoints=11   MinEccen=Yes   PatLLF=0.75   UFLimit=0.95   SeisCat=D   PhiT=0.9   PhiCTied=0.65   PhiCSpiral=0.75   PhiV=0.75   PhiVSeismic=0.6   PhiVJoint=0.85
 
TABLE:  "PREFERENCES - DIMENSIONAL"
   MergeTol=1   FineGrid=250   Nudge=250   SelectTol=3   SnapTol=12   SLineThick=2   PLineThick=4   MaxFont=8   MinFont=3   AutoZoom=10   ShrinkFact=70   TextFileLen=240
 
TABLE:  "PREFERENCES - STEEL DESIGN - AISC 360-10"
   THDesign=Envelopes   FrameType=SMF   PatLLF=0.75   SRatioLimit=0.95   MaxIter=1   SDC=D   SeisCode=Yes   SeisLoad=Yes   ImpFactor=1   SystemRho=1   SystemSds=0.5   SystemR=8   SystemCd=5.5   Omega0=3   Provision=LRFD _
        AMethod="Direct Analysis"   SOMethod="General 2nd Order"   SRMethod="Tau-b Fixed"   NLCoeff=0.002   PhiB=0.9   PhiC=0.9   PhiTY=0.9   PhiTF=0.75   PhiV=0.9   PhiVRolledI=1   PhiVT=0.9   PlugWeld=Yes   HSSWelding=ERW   HSSReduceT=No _
        CheckDefl=No   DLRat=120   SDLAndLLRat=120   LLRat=360   TotalRat=240   NetRat=240
 
TABLE:  "PROGRAM CONTROL"
   ProgramName=SAP2000   Version=16.1.1   CurrUnits="KN, mm, C"   SteelCode="AISC 360-10"   ConcCode="ACI 318-11"   AlumCode="AA-ASD 2000"   ColdCode=AISI-ASD96   RegenHinge=Yes
 
TABLE:  "PROJECT INFORMATION"
   Item="Company Name"   Data="TYLI / R&B / L&B"
   Item="Client Name"
   Item="Project Name"
   Item="Project Number"
   Item="Model Name"
   Item="Model Description"
   Item="Revision Number"
   Item="Frame Type"
   Item=Engineer
   Item=Checker
   Item=Supervisor
   Item="Issue Code"
   Item="Design Code"
 
TABLE:  "REBAR SIZES"
   RebarID=#2   Area=32.258   Diameter=6.35
   RebarID=#3   Area=70.9675996154547   Diameter=9.525
   RebarID=#4   Area=129.032001922727   Diameter=12.7
   RebarID=#5   Area=199.999601538181   Diameter=15.875
   RebarID=#6   Area=283.870398461819   Diameter=19.05
   RebarID=#7   Area=387.096015381813   Diameter=22.225
   RebarID=#8   Area=509.676413843632   Diameter=25.4
   RebarID=#9   Area=645.16   Diameter=28.6512005329132
   RebarID=#10   Area=819.35318769455   Diameter=32.2579995155334
   RebarID=#11   Area=1006.44956308365   Diameter=35.8139991521835
   RebarID=#14   Area=1451.61   Diameter=43.0021989583969
   RebarID=#18   Area=2580.64   Diameter=57.3277992248535
   RebarID=10M   Area=100.000004162606   Diameter=11.3000003604438
   RebarID=15M   Area=200.000008325212   Diameter=16.0000002402959
   RebarID=20M   Area=300.000012487818   Diameter=19.5000002928606
   RebarID=25M   Area=500.000020813031   Diameter=25.2000011414055
   RebarID=30M   Area=700.000029138243   Diameter=29.9000000675832
   RebarID=35M   Area=1000.00004162606   Diameter=35.7000012990997
   RebarID=45M   Area=1500.00006243909   Diameter=43.7000014192476
   RebarID=55M   Area=2500.00010406515   Diameter=56.400002372922
   RebarID=6d   Area=28.3000004150781   Diameter=6.00000009011096
   RebarID=8d   Area=50.3000013308514   Diameter=8.00000012014795
   RebarID=10d   Area=78.5000032676458   Diameter=10.0000001501849
   RebarID=12d   Area=113.000004703745   Diameter=12.0000001802219
   RebarID=14d   Area=154.000006410413   Diameter=14.0000002102589
   RebarID=16d   Area=201.000008366838   Diameter=16.0000002402959
   RebarID=20d   Area=314.000013070583   Diameter=20.0000003003699
   RebarID=25d   Area=491.000020438396   Diameter=25.0000003754623
   RebarID=26d   Area=531.000022103439   Diameter=26.0000003904808
   RebarID=28d   Area=616.000025641654   Diameter=28.0000004205178
   RebarID=N12   Area=113.000004703745   Diameter=12.0000001802219
   RebarID=N16   Area=201.000008366838   Diameter=16.0000002402959
   RebarID=N20   Area=314.000013070583   Diameter=20.0000003003699
   RebarID=N24   Area=452.00001881498   Diameter=24.0000003604438
   RebarID=N28   Area=616.000025641654   Diameter=28.0000004205178
   RebarID=N32   Area=804.000033467353   Diameter=32.0000004805918
   RebarID=N36   Area=1020.00004245858   Diameter=36.0000005406658
 
TABLE:  "SOLID PROPERTY DEFINITIONS"
   SolidProp=SOLID1   Material=4000Psi   MatAngleA=0   MatAngleB=0   MatAngleC=0   InComp=Yes   Color=Magenta   Notes="Added 6/5/2018 5:55:53 PM"
 
END TABLE DATA
