*Heading
** Job name: Job-2 Model name: Model-1
** Generated by: Abaqus/CAE 2020
*Preprint, echo=NO, model=NO, history=NO, contact=NO
**
** PARTS
**
*Part, name=Part-1
*Node
      1,      141.625,        26.75,       213.75
      2,      142.875,        26.75,       213.75
      3,      142.875,   52.0499992,       213.75
      4,      142.875,   78.0500031,       213.75
      5,      142.875,   86.0500031,       213.75
      6,      141.625,   52.0499992,       213.75
      7,      141.625,   78.0500031,       213.75
      8,      141.625,   86.0500031,       213.75
      9,       93.625,        26.75,       213.75
     10,       94.875,        26.75,       213.75
     11,       94.875,   52.0499992,       213.75
     12,       94.875,   78.0500031,       213.75
     13,       94.875,   86.0500031,       213.75
     14,       93.625,   52.0499992,       213.75
     15,       93.625,   78.0500031,       213.75
     16,       93.625,   86.0500031,       213.75
     17,      189.625,        26.75,       213.75
     18,      190.875,        26.75,       213.75
     19,      190.875,   52.0499992,       213.75
     20,      190.875,   78.0500031,       213.75
** ... 19717 like lines cut
*Element, type=S4R
 1,   1,   2, 813, 851
 2, 851, 813, 814, 850
 3, 850, 814, 815, 849
 4, 849, 815, 816, 848
 5, 848, 816, 817, 847
 6, 847, 817, 818, 846
 7, 846, 818, 819, 845
 8, 845, 819, 820, 844
 9, 844, 820, 821, 843
10, 843, 821, 822, 842
11, 842, 822, 823, 841
12, 841, 823, 824, 840
13, 840, 824,   3,   6
14,   6,   3, 825, 863
15, 863, 825, 826, 862
16, 862, 826, 827, 861
17, 861, 827, 828, 860
18, 860, 828, 829, 859
19, 859, 829, 830, 858
20, 858, 830, 831, 857
** ... 18748 like lines cut
*Element, type=B31
13173,    91, 10080
13174, 10080, 10081
13175, 10081, 10082
13176, 10082, 10083
13177, 10083, 10084
13178, 10084, 10085
13179, 10085, 10086
13180, 10086, 10087
13181, 10087, 10088
13182, 10088, 10089
13183, 10089, 10090
13184, 10090, 10091
13185, 10091, 10092
13186, 10092, 10093
13187, 10093, 10094
13188, 10094, 10095
13189, 10095, 10096
13190, 10096, 10097
13191, 10097, 10098
13192, 10098, 10099
** ... 378 like lines cut
*Element, type=S3
13571, 10460, 16038, 10459
13572, 16068, 15894, 16084
13573, 16087, 16014,   663
14045, 16156, 16138, 16136
14046, 16144, 10845, 16142
14091, 16204, 16398, 16178
14092, 16365, 16168, 16360
14093, 16368, 16364, 16167
14559, 16435, 16434, 16438
14560, 16440, 16413, 16439
14618, 16464, 16463, 16467
14619, 16469, 16442, 16468
14677, 16493, 16492, 16496
14678, 16498, 16471, 16497
14736, 16522, 16521, 16525
14737, 16527, 16500, 16526
14795, 16551, 16550, 16554
14796, 16556, 16529, 16555
14854, 16580, 16579, 16583
14855, 16585, 16558, 16584
** ... 318 like lines cut
*Nset, nset=ColA
    27,    28,    32,    33,   134,   137,   608,   609,   618,   619,   620,   621,   634,   635,   636,   637
   640,   641,   644,   645,   646,   647,   648,   649,   650,   651,   652,   653,   654,   655,   656,   657
   682,   683,   987,  1010,  2014,  2015,  2016,  2017,  2018,  2019,  2020,  2021,  2022,  2023,  2024,  2025
  2026,  2027,  2028,  2029,  2030,  2031,  2032,  2033,  2034,  2035,  2036,  2037,  2038,  2039,  8206,  8207
  8208,  8209,  8210,  8211,  8212,  8213,  8214,  8215,  8216,  8217,  8218,  8219,  8220,  8221,  8222,  8223
  8224,  8225,  8226,  8227,  8228,  8229,  8230,  8231,  8336,  8337,  8338,  8339,  8340,  8341,  8342,  8343
  8344,  8345,  8346,  8347,  8348,  8349,  8350,  8351,  8352,  8353,  8354,  8355,  8356,  8357,  8358,  8359
  8360,  8361,  8362,  8363,  8364,  8365,  8366,  8367,  8368,  8369,  8370,  8371,  8372,  8373,  8374,  8375
  8376,  8377,  8378,  8379,  8380,  8381,  8382,  8383,  8384,  8385,  8386,  8387,  8388,  8389,  8390,  8391
  8392,  8393,  8394,  8395,  8396,  8397,  8398,  8399,  8400,  8401,  8402,  8403,  8404,  8405,  8406,  8407
  8408,  8409,  8410,  8411,  8412,  8413,  8414,  8415,  8416,  8417,  8418,  8419,  8420,  8421,  8422,  8423
  8424,  8425,  8426,  8427,  8428,  8429,  8430,  8431,  8432,  8433,  8434,  8435,  8436,  8437,  8438,  8439
  8440,  8441,  8442,  8443,  8444,  8445,  8446,  8447,  8448,  8449,  8450,  8451,  8452,  8453,  8454,  8455
  8456,  8457,  8458,  8459,  8460,  8461,  8462,  8463,  8464,  8465,  8466,  8467,  8468,  8469,  8470,  8471
  8472,  8473,  8474,  8475,  8476,  8477,  8478,  8479,  8480,  8481,  8482,  8483,  8484,  8485,  8486,  8487
  8488,  8489,  8490,  8491,  8492,  8493,  8494,  8495,  8496,  8497,  8498,  8499,  8500,  8501,  8502,  8503
  8504,  8505,  8506,  8507,  8508,  8509,  8510,  8511,  8512,  8513,  8514,  8515,  8516,  8517,  8518,  8519
  8520,  8521,  8522,  8523,  8524,  8525,  8526,  8527,  8528,  8529,  8530,  8531,  8532,  8533,  8534,  8535
  8536,  8537,  8538,  8539,  8540,  8541,  8542,  8543,  8544,  8545,  8546,  8547,  8548,  8549,  8550,  8551
  8552,  8553,  8554,  8555,  8556,  8557,  8558,  8559,  8560,  8561,  8562,  8563,  8564,  8565,  8566,  8567
** ... 363 like lines cut
*Elset, elset=ColA
  7711,  7712,  7713,  7714,  7715,  7716,  7717,  7718,  7719,  7720,  7721,  7722,  7723,  7724,  7725,  7726
  7727,  7728,  7729,  7730,  7731,  7732,  7733,  7734,  7735,  7736,  7737,  7738,  7739,  7740,  7741,  7742
  7743,  7744,  7745,  7746,  7747,  7748,  7749,  7750,  7751,  7752,  7753,  7754,  7755,  7756,  7757,  7758
  7759,  7760,  7761,  7762,  7763,  7764,  7765,  7766,  7767,  7768,  7769,  7770,  7771,  7772,  7773,  7774
  7775,  7776,  7777,  7778,  7779,  7780,  7781,  7782,  7783,  7784,  7785,  7786,  7787,  7788,  7789,  7790
  7791,  7792,  7793,  7794,  7795,  7796,  7797,  7798,  7799,  7800,  7801,  7802,  7803,  7804,  7805,  7806
  7807,  7808,  7809,  7810,  7811,  7812,  7813,  7814,  7815,  7816,  7817,  7818,  7819,  7820,  7821,  7822
  7823,  7824,  7825,  7826,  7827,  7828,  7829,  7830,  7831,  7832,  7833,  7834,  7835,  7836,  7837,  7838
  7839,  7840,  7841,  7842,  7843,  7844,  7845,  7846,  7847,  7848,  7849,  7850,  7851,  7852,  7853,  7854
  7855,  7856,  7857,  7858,  7859,  7860,  7861,  7862,  7863,  7864,  7865,  7866,  7867,  7868,  7869,  7870
  7871,  7872,  7873,  7874,  7875,  7876,  7877,  7878,  7879,  7880,  7881,  7882,  7883,  7884,  7885,  7886
  7887,  7888,  7889,  7890,  7891,  7892,  7893,  7894,  7895,  7896,  7897,  7898,  7899,  7900,  7901,  7902
  7903,  7904,  7905,  7906,  7907,  7908,  7909,  7910,  7911,  7912,  7913,  7914,  7915,  7916,  7917,  7918
  7919,  7920,  7921,  7922,  7923,  7924,  7925,  7926,  7927,  7928,  7929,  7930,  7931,  7932,  7933,  7934
  7935,  7936,  7937,  7938,  7939,  7940,  7941,  7942,  7943,  7944,  7945,  7946,  7947,  7948,  7949,  7950
  7951,  7952,  7953,  7954,  7955,  7956,  7957,  7958,  7959,  7960,  7961,  7962,  7963,  7964,  7965,  7966
  7967,  7968,  7969,  7970,  7971,  7972,  7973,  7974,  7975,  7976,  7977,  7978,  7979,  7980,  7981,  7982
  7983,  7984,  7985,  7986,  7987,  7988,  7989,  7990,  7991,  7992,  7993,  7994,  7995,  7996,  7997,  7998
  7999,  8000,  8001,  8002,  8003,  8004,  8005,  8006,  8007,  8008,  8009,  8010,  8011,  8012,  8013,  8014
  8015,  8016,  8017,  8018,  8019,  8020,  8021,  8022,  8023,  8024,  8025,  8026,  8027,  8028,  8029,  8030
** ... 360 like lines cut
*Nset, nset=BaseSet
   620,   621,   638,   639,   640,   641,   642,   643,   644,   645,   646,   648,   650,   653,   656,   657
   809,   810,   811,   812,  8476,  8477,  8478,  8673,  8674,  8675,  8676,  8677,  8678,  8679,  8680,  8681
  8682,  8683,  8684,  8685,  8686,  8687,  8688,  8689,  8690,  8691,  8692,  8693,  8694,  8695,  8696,  8697
  8698,  8699,  8700,  8701,  8702,  8840,  8841,  8842,  9117,  9118,  9259,  9260,  9261,  9370,  9371,  9372
  9515,  9516,  9933,  9934, 10075, 10076, 10077, 10078, 10079, 10857, 10858, 10859, 10860, 10861, 10862, 10863
 10864, 10865, 10866, 10867, 10868, 10869, 10870, 10871, 10872, 10873, 10874, 10875, 10876, 10877, 10878, 10879
 10880, 10881, 10882, 10883, 10884, 10885, 10886, 10887, 10888, 10889, 10890, 10891, 10892, 10893, 10894, 10895
 10896, 10897, 10898, 10899, 12696, 12697, 12698, 12699, 12700, 12701, 12702, 12703, 12704, 12705, 12706, 12707
 12708, 12709, 12710, 12711, 12712, 12713, 12714, 12715, 12716, 12717, 12718, 12719, 12720, 12721, 12722, 12723
 12724, 12725, 12726, 12727, 12728, 12729, 12730, 12731, 12732, 12733, 12734, 18765, 18766, 18767, 18768, 18769
 18770, 18771, 18772, 18773, 18774, 18775, 18776, 18777, 18778, 18779, 18780, 18781, 18782, 18783, 18784, 18785
 18786, 18787, 18788, 18789, 18790, 18791, 18792, 18793, 18794, 18795, 18796, 18797, 18798, 18799, 18800, 18801
 18802, 18803, 18804, 18805, 18806, 18807, 18808, 18809, 18810, 18811, 18812, 18813, 18814, 18815, 18816, 18817
 18818, 18819, 18820, 18821, 18822, 18823, 18824, 18825, 18826, 18827, 18828, 18829, 18830, 18831, 18832, 18833
 18834, 18835, 18836, 18837, 18838, 18839, 18840, 18841, 18842, 18843, 18844, 18845, 18846, 18847, 18848, 18849
 18850, 18851, 18852, 18853, 18854, 18855, 18856, 18857, 18858, 18859, 18860, 18861, 18862, 18863, 18864, 18865
 18866, 18867, 18868, 18869, 18870, 18871, 18872, 18873, 18874, 18875, 18876, 18877, 18878, 18879, 18880, 18881
 18882, 18883, 18884, 18885, 18886, 18887, 18888, 18889, 18890, 18891, 18892, 18893, 18894, 18895, 18896, 18897
 18898, 18899, 18900, 18901, 18902, 18903, 18904, 18905, 18906, 18907, 18908, 18909, 18910, 18911, 18912, 18913
 18914, 18915, 18916, 18917, 18918
*Elset, elset=BaseSet
  8701,  8702,  8703,  8704,  8705,  8706,  8707,  8708,  8709,  8710,  8711,  8712,  8713,  8714,  8715,  8716
  8717,  8718,  8719,  8720,  8721,  8722,  8723,  8724,  8725,  8726,  8727,  8728,  8729,  8730,  8731,  8732
  8733,  8734,  8735,  8736,  8737,  8738,  8739,  8740,  8741,  8742,  8743,  8744,  8745,  8746,  8747,  8748
  8749,  8750,  8751,  8752,  8753,  8754,  8755,  8756, 18173, 18174, 18175, 18176, 18177, 18178, 18179, 18180
 18181, 18182, 18183, 18184, 18185, 18186, 18187, 18188, 18189, 18190, 18191, 18192, 18193, 18194, 18195, 18196
 18197, 18198, 18199, 18200, 18201, 18202, 18203, 18204, 18205, 18206, 18207, 18208, 18209, 18210, 18211, 18212
 18213, 18214, 18215, 18216, 18217, 18218, 18219, 18220, 18221, 18222, 18223, 18224, 18225, 18226, 18227, 18228
 18229, 18230, 18231, 18232, 18233, 18234, 18235, 18236, 18237, 18238, 18239, 18240, 18241, 18242, 18243, 18244
 18245, 18246, 18247, 18248, 18249, 18250, 18251, 18252, 18253, 18254, 18255, 18256, 18257, 18258, 18259, 18260
 18261, 18262, 18263, 18264, 18265, 18266, 18267, 18268, 18269, 18270, 18271, 18272, 18273, 18274, 18275, 18276
 18277, 18278, 18279, 18280, 18281, 18282, 18283, 18284, 18285, 18286, 18287, 18288, 18289, 18290, 18291, 18292
 18293, 18294, 18295, 18296, 18297, 18298, 18299, 18300, 18301, 18302, 18303, 18304, 18305, 18306, 18307, 18308
 18309, 18310, 18311, 18312, 18313, 18314, 18315, 18316, 18317, 18318, 18319, 18320, 18321, 18322, 18323, 18324
 18325, 18326, 18327, 18328, 18329, 18330, 18331, 18332, 18333, 18334, 18335, 18336, 18337, 18338, 18339, 18340
 18341, 18342, 18343, 18344, 18345, 18346, 18347, 18348, 18349, 18350, 18351, 18352, 18353, 18354, 18355, 18356
 18357, 18358, 18359, 18360, 18361, 18362, 18363, 18364, 18365, 18366, 18367, 18368, 18369, 18370, 18371, 18372
 18373, 18374, 18375, 18376, 18377, 18378, 18379, 18380, 18381, 18382, 18383, 18384, 18385, 18386, 18387, 18388
 18389, 18390, 18391, 18392, 18393, 18394, 18395, 18396, 18397
*Nset, nset=ColTop
   618,   619,   634,   635,   636,   637,   647,   649,   651,   652,   654,   655,   682,   683,  8336,  8337
  8338,  8663,  8664,  8665,  8666,  8667,  8668,  8669,  8670,  8671,  8672,  9119,  9120,  9121,  9373,  9374
  9375,  9376,  9377,  9654,  9655,  9656,  9794,  9795,  9935,  9936,  9937, 10537, 10538, 10539, 10540, 12690
 12691, 12692, 12693, 12694, 12695, 18713, 18714, 18715, 18716, 18717, 18718, 18719, 18720, 18721, 18722, 18723
 18724, 18725, 18726, 18727, 18728, 18729, 18730, 18731, 18732, 18733, 18734, 18735, 18736, 18737, 18738, 18739
 18740, 18741, 18742, 18743, 18744, 18745, 18746, 18747, 18748, 18749, 18750, 18751, 18752, 18753, 18754, 18755
 18756, 18757, 18758, 18759, 18760, 18761, 18762, 18763, 18764
*Elset, elset=ColTop
  8689,  8690,  8691,  8692,  8693,  8694,  8695,  8696,  8697,  8698,  8699,  8700, 18102, 18103, 18104, 18105
 18106, 18107, 18108, 18109, 18110, 18111, 18112, 18113, 18114, 18115, 18116, 18117, 18118, 18119, 18120, 18121
 18122, 18123, 18124, 18125, 18126, 18127, 18128, 18129, 18130, 18131, 18132, 18133, 18134, 18135, 18136, 18137
 18138, 18139, 18140, 18141, 18142, 18143, 18144, 18145, 18146, 18147, 18148, 18149, 18150, 18151, 18152, 18153
 18154, 18155, 18156, 18157, 18158, 18159, 18160, 18161, 18162, 18163, 18164, 18165, 18166, 18167, 18168, 18169
 18170, 18171, 18172
*Nset, nset=FrameTip
   622,   623,   624,   625,   626,   627,   628,   629,   630,   631,   632,   633,  8587,  8588,  8589,  8590
  8591,  8592,  8593,  8594,  8595,  8596,  8597,  8598,  8599,  8600,  8601,  8602,  8603,  8604,  8605,  8606
  8607,  8608,  8609,  8610,  8611,  8612,  8613,  8614,  8615,  8616,  8617,  8618,  8619,  8620,  8621,  8622
  8623,  8624,  8625,  8626,  8627,  8628,  8629,  8630,  8631,  8632,  8633,  8634,  8635,  8636,  8637,  8638
  8639,  8640,  8641,  8642,  8643,  8644,  8645,  8646,  8647,  8648,  8649,  8650,  8651,  8652,  8653,  8654
  8655,  8656,  8657,  8658,  8659,  8660, 12334, 12335, 12336, 12337, 12338, 12339, 12340, 12341, 12342, 12343
 12344, 12345, 12346, 12347, 12348, 12349, 12350, 12351, 12352, 12353, 12354, 12355, 12356, 12357, 12358, 12359
 12360, 12361, 12362, 12363, 12364, 12365, 12366, 12367, 12368, 12369, 12370, 12371, 12372, 12373, 12374, 12375
 12376, 12377, 12378, 12379, 12380, 12381, 12382, 12383, 12384, 12385, 12386, 12387, 12388, 12389, 12390, 12391
 12392, 12393, 12394, 12395, 12396, 12397, 12398, 12399, 12400, 12401, 12402, 12403, 12404, 12405, 12406, 12407
 12408, 12409, 12410, 12411, 12412, 12413, 12414, 12415, 12416, 12417, 12418, 12419, 12420, 12421, 12422, 12423
 12424, 12425, 12426, 12427, 12428, 12429, 12430, 12431, 12432, 12433, 12434, 12435, 12436, 12437, 12438, 12439
 12440, 12441, 12442, 12443, 12444, 12445, 12446, 12447, 12448, 12449, 12450, 12451, 12452, 12453, 12454, 12455
 12456, 12457, 12458, 12459, 12460, 12461, 12462, 12463, 12464, 12465, 12466, 12467, 12468, 12469, 12470, 12471
 12472, 12473, 12474, 12475, 12476, 12477, 12478, 12479, 12480, 12481, 12482, 12483, 12484, 12485, 12486, 12487
 12488, 12489, 12490, 12491, 12492, 12493, 12494, 12495, 12496, 12497, 12498, 12499, 12500, 12501, 12502, 12503
 12504, 12505, 12506, 12507, 12508, 12509, 12510, 12511, 12512, 12513, 12514, 12515, 12516, 12517, 12518, 12519
 12520, 12521, 12522, 12523, 12524, 12525, 12526, 12527, 12528, 12529, 12530, 12531, 12532, 12533, 12534, 12535
 12536, 12537, 12538, 12539, 12540, 12541, 12542, 12543, 12544, 12545, 12546, 12547, 12548, 12549, 12550, 12551
 12552, 12553, 12554, 12555, 12556, 12557, 12558, 12559, 12560, 12561, 12562, 12563, 12564, 12565, 12566, 12567
** ... 6 like lines cut
*Elset, elset=FrameTip, generate
 8263,  8634,     1
*Nset, nset=RibSheetSet
   134,   135,   136,   137,   138,   139,   140,   141,   142,   143,   144,   145,   146,   147,   148,   149
   150,   151,   152,   153,   154,   155,   156,   157,   158,   159,   160,   161,   162,   163,   164,   165
   166,   167,   168,   169,   170,   171,   172,   173,   174,   175,   176,   177,   178,   179,   180,   181
   182,   183,   184,   185,   186,   187,   188,   189,   190,   191,   192,   193,   194,   195,   196,   197
   198,   199,   200,   201,   202,   203,   204,   205,   206,   207,   208,   209,   210,   211,   212,   213
   214,   215,   216,   217,   218,   219,   220,   221,   222,   223,   224,   225,   226,   227,   228,   229
   230,   231,   232,   233,   234,   235,   236,   237,   238,   239,   240,   241,   242,   243,   244,   245
   246,   247,   248,   249,   250,   251,   252,   253,   254,   255,   256,   257,   258,   259,   260,   261
   262,   263,   264,   265,   266,   267,   268,   269,   270,   271,   272,   273,   274,   275,   276,   277
   278,   279,   280,   281,   282,   283,   284,   285,   286,   287,   288,   289,   290,   291,   292,   293
   294,   295,   296,   297,   298,   299,   300,   301,   302,   303,   304,   305,   306,   307,   308,   309
   310,   311,   312,   313,   314,   315,   316,   317,   318,   319,   320,   321,   322,   323,   324,   325
   326,   327,   328,   329,   330,   331,   332,   333,   334,   335,   336,   337,   338,   339,   340,   341
   342,   343,   344,   345,   346,   347,   348,   349,   350,   351,   352,   353,   354,   355,   356,   357
   358,   359,   360,   361,   362,   363,   364,   365,   366,   367,   368,   369,   370,   371,   372,   373
   374,   375,   376,   377,   378,   379,   380,   381,   382,   383,   384,   385,   386,   387,   388,   389
   390,   391,   392,   393,   394,   395,   396,   397,   398,   399,   400,   401,   402,   403,   404,   405
   406,   407,   408,   409,   410,   411,   412,   413,   414,   415,   416,   417,   418,   419,   420,   421
   422,   423,   424,   425,   426,   427,   428,   429,   430,   431,   432,   433,   434,   435,   436,   437
   438,   439,   440,   441,   442,   443,   444,   445,   446,   447,   448,   449,   450,   451,   452,   453
** ... 515 like lines cut
*Elset, elset=RibSheetSet
  1285,  1286,  1287,  1288,  1289,  1290,  1291,  1292,  1293,  1294,  1295,  1296,  1297,  1298,  1299,  1300
  1301,  1302,  1303,  1304,  1305,  1306,  1307,  1308,  1309,  1310,  1311,  1312,  1313,  1314,  1315,  1316
  1317,  1318,  1319,  1320,  1321,  1322,  1323,  1324,  1325,  1326,  1327,  1328,  1329,  1330,  1331,  1332
  1333,  1334,  1335,  1336,  1337,  1338,  1339,  1340,  1341,  1342,  1343,  1344,  1345,  1346,  1347,  1348
  1349,  1350,  1351,  1352,  1353,  1354,  1355,  1356,  1357,  1358,  1359,  1360,  1361,  1362,  1363,  1364
  1365,  1366,  1367,  1368,  1369,  1370,  1371,  1372,  1373,  1374,  1375,  1376,  1377,  1378,  1379,  1380
  1381,  1382,  1383,  1384,  1385,  1386,  1387,  1388,  1389,  1390,  1391,  1392,  1393,  1394,  1395,  1396
  1397,  1398,  1399,  1400,  1401,  1402,  1403,  1404,  1405,  1406,  1407,  1408,  1409,  1410,  1411,  1412
  1413,  1414,  1415,  1416,  1417,  1418,  1419,  1420,  1421,  1422,  1423,  1424,  1425,  1426,  1427,  1428
  1429,  1430,  1431,  1432,  1433,  1434,  1435,  1436,  1437,  1438,  1439,  1440,  1441,  1442,  1443,  1444
  1445,  1446,  1447,  1448,  1449,  1450,  1451,  1452,  1453,  1454,  1455,  1456,  1457,  1458,  1459,  1460
  1461,  1462,  1463,  1464,  1465,  1466,  1467,  1468,  1469,  1470,  1471,  1472,  1473,  1474,  1475,  1476
  1477,  1478,  1479,  1480,  1481,  1482,  1483,  1484,  1485,  1486,  1487,  1488,  1489,  1490,  1491,  1492
  1493,  1494,  1495,  1496,  1497,  1498,  1499,  1500,  1501,  1502,  1503,  1504,  1505,  1506,  1507,  1508
  1509,  1510,  1511,  1512,  1513,  1514,  1515,  1516,  1517,  1518,  1519,  1520,  1521,  1522,  1523,  1524
  1525,  1526,  1527,  1528,  1529,  1530,  1531,  1532,  1533,  1534,  1535,  1536,  1537,  1538,  1539,  1540
  1541,  1542,  1543,  1544,  1545,  1546,  1547,  1548,  1549,  1550,  1551,  1552,  1553,  1554,  1555,  1556
  1557,  1558,  1559,  1560,  1561,  1562,  1563,  1564,  1565,  1566,  1567,  1568,  1569,  1570,  1571,  1572
  1573,  1574,  1575,  1576,  1577,  1578,  1579,  1580,  1581,  1582,  1583,  1584,  1585,  1586,  1587,  1588
  1589,  1590,  1591,  1592,  1593,  1594,  1595,  1596,  1597,  1598,  1599,  1600,  1601,  1602,  1603,  1604
** ... 493 like lines cut
*Nset, nset=FrameSet
     1,     2,     9,    10,    17,    18,    25,    26,    27,    28,    29,    30,    31,    32,    33,    34
    35,    39,    40,    42,    43,    44,    45,    46,    47,    48,    52,    53,    55,    56,    57,    58
    59,    60,    61,    62,    63,    64,    68,    69,    71,    72,    73,    74,    75,    76,    77,    78
    79,    80,    81,    82,    86,    87,    89,    90,   130,   134,   135,   136,   137,   138,   139,   140
   141,   142,   143,   144,   145,   146,   147,   148,   149,   150,   151,   152,   153,   154,   155,   156
   157,   158,   159,   160,   161,   162,   163,   164,   165,   166,   167,   168,   169,   170,   171,   172
   173,   174,   175,   176,   177,   178,   179,   180,   181,   182,   183,   184,   185,   186,   187,   188
   189,   190,   191,   192,   193,   194,   195,   196,   197,   198,   199,   200,   201,   202,   203,   204
   205,   206,   207,   208,   209,   210,   211,   212,   213,   214,   215,   216,   217,   218,   219,   220
   221,   222,   223,   224,   225,   226,   227,   228,   229,   230,   231,   232,   233,   234,   235,   236
   237,   238,   239,   240,   241,   242,   243,   244,   245,   246,   247,   248,   249,   250,   253,   256
   257,   262,   263,   376,   379,   382,   383,   384,   387,   390,   391,   392,   395,   398,   399,   400
   403,   406,   407,   408,   411,   414,   415,   416,   419,   422,   423,   424,   427,   430,   431,   432
   435,   438,   439,   440,   443,   446,   447,   448,   451,   454,   455,   456,   459,   462,   463,   464
   467,   470,   471,   472,   475,   478,   479,   480,   483,   486,   487,   488,   491,   494,   495,   496
   499,   502,   503,   504,   507,   510,   511,   512,   515,   518,   519,   520,   523,   526,   527,   528
   531,   534,   535,   536,   539,   542,   543,   544,   547,   550,   551,   552,   555,   558,   559,   560
   563,   566,   567,   568,   571,   574,   575,   576,   579,   582,   583,   584,   587,   590,   591,   592
   595,   598,   599,   600,   603,   606,   607,   608,   609,   610,   611,   616,   617,   618,   622,   623
   624,   625,   626,   627,   628,   629,   630,   631,   632,   633,   649,   651,   652,   654,   655,   658
** ... 196 like lines cut
*Elset, elset=FrameSet
    91,    92,    93,    94,    95,    96,    97,    98,    99,   100,   101,   102,   103,   104,   105,   106
   107,   108,   109,   110,   111,   112,   113,   114,   115,   116,   117,   118,   119,   120,   121,   122
   123,   124,   125,   126,   127,   128,   129,   130,   131,   132,   133,   134,   135,   136,   137,   138
   151,   152,   153,   154,   155,   156,   157,   158,   159,   160,   161,   162,   163,   164,   165,   166
   167,   168,   169,   170,   171,   172,   173,   174,   175,   176,   177,   178,   179,   180,   181,   182
   183,   184,   185,   186,   187,   188,   189,   190,   191,   192,   193,   194,   195,   196,   209,   210
   211,   212,   213,   214,   215,   216,   217,   218,   219,   220,   221,   222,   223,   224,   225,   226
   227,   228,   229,   230,   231,   232,   233,   234,   235,   236,   237,   238,   239,   240,   241,   242
   243,   244,   245,   246,   247,   248,   249,   250,   251,   252,   253,   254,   255,   256,   257,   258
   259,   260,   261,   262,   263,   264,   265,   266,   267,   268,   269,   270,   271,   272,   273,   274
   275,   276,   277,   278,   279,   280,   281,   282,   283,   284,   285,   286,   287,   288,   289,   290
   291,   292,   293,   294,   295,   296,   297,   298,   311,   312,   313,   314,   315,   316,   317,   318
   319,   320,   321,   322,   323,   324,   325,   326,   327,   328,   329,   330,   331,   332,   333,   334
   335,   336,   337,   338,   339,   340,   341,   342,   343,   344,   345,   346,   347,   348,   349,   350
   351,   352,   353,   354,   355,   356,   357,   358,   359,   360,   361,   362,   363,   364,   365,   366
   367,   368,   369,   370,   371,   372,   373,   374,   375,   376,   377,   378,   379,   380,   381,   382
   383,   384,   385,   386,   387,   388,   389,   390,   391,   392,   393,   394,   395,   396,   397,   398
   399,   400,   401,   402, 13571, 13572, 13573, 13574, 13575, 13576, 13577, 13578, 13579, 13580, 13581, 13582
 13583, 13584, 13585, 13586, 13587, 13588, 13589, 13590, 13591, 13592, 13593, 13594, 13595, 13596, 13597, 13598
 13599, 13600, 13601, 13602, 13603, 13604, 13605, 13606, 13607, 13608, 13609, 13610, 13611, 13612, 13613, 13614
** ... 173 like lines cut
*Nset, nset=I-BeamSet
     1,     2,     3,     4,     5,     6,     7,     8,     9,    10,    11,    12,    13,    14,    15,    16
    17,    18,    19,    20,    21,    22,    23,    24,    25,    26,    29,    30,    34,    35,    36,    37
    38,    39,    40,    41,    42,    43,    44,    47,    48,    49,    50,    51,    52,    53,    54,    55
    56,    57,    60,    63,    64,    65,    66,    67,    68,    69,    70,    71,    72,    73,    76,    81
    82,    83,    84,    85,    86,    87,    88,    89,    90,    91,    92,    93,    94,    95,    96,    97
    98,    99,   100,   101,   102,   103,   104,   105,   106,   107,   108,   109,   110,   111,   112,   113
   114,   115,   116,   117,   118,   119,   120,   121,   122,   123,   124,   125,   126,   127,   128,   129
   130,   131,   132,   133,   813,   814,   815,   816,   817,   818,   819,   820,   821,   822,   823,   824
   825,   826,   827,   828,   829,   830,   831,   832,   833,   834,   835,   836,   837,   838,   839,   840
   841,   842,   843,   844,   845,   846,   847,   848,   849,   850,   851,   852,   853,   854,   855,   856
   857,   858,   859,   860,   861,   862,   863,   864,   865,   866,   867,   868,   869,   870,   871,   872
   873,   874,   875,   876,   877,   878,   879,   880,   881,   882,   883,   884,   885,   886,   887,   888
   889,   890,   891,   892,   893,   894,   895,   896,   897,   898,   899,   900,   901,   902,   903,   904
   905,   906,   907,   908,   909,   910,   911,   912,   913,   914,   915,   916,   917,   918,   919,   920
   921,   922,   923,   924,   925,   926,   927,   928,   929,   930,   931,   932,   933,   934,   935,   936
   937,   938,   939,   940,   941,   942,   943,   944,   945,   946,   947,   948,   949,   950,   951,   952
   953,   954,   955,   956,   957,   958,   959,   960,   961,   962,   963,   964,   965,   966,   967,   968
   969,   970,   971,   972,   973,   974,   975,   999,  1022,  1023,  1024,  1025,  1026,  1027,  1028,  1029
  1030,  1031,  1032,  1033,  1034,  1035,  1036,  1037,  1080,  1081,  1082,  1083,  1084,  1085,  1086,  1087
  1088,  1089,  1090,  1091,  1092,  1093,  1094,  1095,  1096,  1097,  1180,  1181,  1182,  1183,  1184,  1185
** ... 56 like lines cut
*Elset, elset=I-BeamSet
    1,    2,    3,    4,    5,    6,    7,    8,    9,   10,   11,   12,   13,   14,   15,   16
   17,   18,   19,   20,   21,   22,   23,   24,   25,   26,   27,   28,   29,   30,   31,   32
   33,   34,   35,   36,   37,   38,   39,   40,   41,   42,   43,   44,   45,   46,   47,   48
   49,   50,   51,   52,   53,   54,   55,   56,   57,   58,   59,   60,   61,   62,   63,   64
   65,   66,   67,   68,   69,   70,   71,   72,   73,   74,   75,   76,   77,   78,   79,   80
   81,   82,   83,   84,   85,   86,   87,   88,   89,   90,  139,  140,  141,  142,  143,  144
  145,  146,  147,  148,  149,  150,  197,  198,  199,  200,  201,  202,  203,  204,  205,  206
  207,  208,  299,  300,  301,  302,  303,  304,  305,  306,  307,  308,  309,  310,  403,  404
  405,  406,  407,  408,  409,  410,  411,  412,  413,  414,  415,  416,  417,  418,  419,  420
  421,  422,  423,  424,  425,  426,  427,  428,  429,  430,  431,  432,  433,  434,  435,  436
  437,  438,  439,  440,  441,  442,  443,  444,  445,  446,  447,  448,  449,  450,  451,  452
  453,  454,  455,  456,  457,  458,  459,  460,  461,  462,  463,  464,  465,  466,  467,  468
  469,  470,  471,  472,  473,  474,  475,  476,  477,  478,  479,  480,  481,  482,  483,  484
  485,  486,  487,  488,  489,  490,  491,  492,  493,  494,  495,  496,  497,  498,  499,  500
  501,  502,  503,  504,  505,  506,  507,  508,  509,  510,  511,  512,  513,  514,  515,  516
  517,  518,  519,  520,  521,  522,  523,  524,  525,  526,  527,  528,  529,  530,  531,  532
  533,  534,  535,  536,  537,  538,  539,  540,  541,  542,  543,  544,  545,  546,  547,  548
  549,  550,  551,  552,  553,  554,  555,  556,  557,  558,  559,  560,  561,  562,  563,  564
  565,  566,  567,  568,  569,  570,  571,  572,  573,  574,  575,  576,  577,  578,  579,  580
  581,  582,  583,  584,  585,  586,  587,  588,  589,  590,  591,  592,  593,  594,  595,  596
** ... 43 like lines cut
*Nset, nset=L-BeamSet
    31,    41,    45,    46,    54,    58,    59,    61,    62,    70,    74,    75,    77,    78,    79,    80
    88,   129,   131,   132,   133,   658,   659,   660,   661,   662,   663,   664,   665,   666,   667,   668
   669,   670,   671,   672,   673,   674,   675,   676,   677,   678,   679,   680, 10278, 10279, 10280, 10281
 10282, 10283, 10284, 10285, 10286, 10287, 10288, 10289, 10290, 10291, 10292, 10293, 10294, 10295, 10296, 10297
 10298, 10299, 10300, 10301, 10302, 10303, 10304, 10305, 10306, 10307, 10308, 10309, 10310, 10311, 10312, 10313
 10314, 10315, 10316, 10317, 10318, 10319, 10320, 10321, 10322, 10323, 10324, 10325, 10326, 10327, 10328, 10329
 10330, 10331, 10332, 10333, 10334, 10335, 10336, 10337, 10338, 10339, 10340, 10341, 10342, 10343, 10344, 10345
 10346, 10347, 10348, 10349, 10350, 10351, 10352, 10353, 10354, 10355, 10356, 10357, 10358, 10359, 10360, 10361
 10362, 10363, 10364, 10365, 10366, 10367, 10368, 10369, 10370, 10371, 10372, 10373, 10374, 10375, 10376, 10377
 10378, 10379, 10380, 10381, 10382, 10383, 10384, 10385, 10386, 10387, 10388, 10389, 10390, 10391, 10392, 10393
 10394, 10395, 10396, 10397, 10398, 10399, 10400, 10401, 10402, 10403, 10404, 10405, 10406, 10407, 10408, 10409
 10410, 10411, 10412, 10413, 10414, 10415, 10416, 10417, 10418, 10419, 10420, 10421, 10422, 10423, 10424, 10425
 10426, 10427, 10428, 10429, 10430, 10431, 10432, 10433, 10434, 10435, 10436, 10437, 10438, 10439, 10440, 10441
 10442, 10443, 10444, 10445, 10446
*Elset, elset=L-BeamSet, generate
 13380,  13570,      1
*Nset, nset=WalkSheetSet
     6,    14,    22,    91,   100,   113, 10080, 10081, 10082, 10083, 10084, 10085, 10086, 10087, 10088, 10089
 10090, 10091, 10092, 10093, 10094, 10095, 10096, 10097, 10098, 10099, 10100, 10101, 10102, 10103, 10104, 10105
 10106, 10107, 10108, 10109, 10110, 10111, 10112, 10113, 10114, 10115, 10116, 10117, 10118, 10119, 10120, 10121
 10122, 10123, 10124, 10125, 10126, 10127, 10128, 10129, 10130, 10131, 10132, 10133, 10134, 10135, 10136, 10137
 10138, 10139, 10140, 10141, 10142, 10143, 10144, 10145
*Elset, elset=WalkSheetSet, generate
 13173,  13241,      1
*Nset, nset=WalkBeamSet
     7,     8,    15,    16,    23,    24,    92,    93,   101,   102,   114,   115, 10146, 10147, 10148, 10149
 10150, 10151, 10152, 10153, 10154, 10155, 10156, 10157, 10158, 10159, 10160, 10161, 10162, 10163, 10164, 10165
 10166, 10167, 10168, 10169, 10170, 10171, 10172, 10173, 10174, 10175, 10176, 10177, 10178, 10179, 10180, 10181
 10182, 10183, 10184, 10185, 10186, 10187, 10188, 10189, 10190, 10191, 10192, 10193, 10194, 10195, 10196, 10197
 10198, 10199, 10200, 10201, 10202, 10203, 10204, 10205, 10206, 10207, 10208, 10209, 10210, 10211, 10212, 10213
 10214, 10215, 10216, 10217, 10218, 10219, 10220, 10221, 10222, 10223, 10224, 10225, 10226, 10227, 10228, 10229
 10230, 10231, 10232, 10233, 10234, 10235, 10236, 10237, 10238, 10239, 10240, 10241, 10242, 10243, 10244, 10245
 10246, 10247, 10248, 10249, 10250, 10251, 10252, 10253, 10254, 10255, 10256, 10257, 10258, 10259, 10260, 10261
 10262, 10263, 10264, 10265, 10266, 10267, 10268, 10269, 10270, 10271, 10272, 10273, 10274, 10275, 10276, 10277
*Elset, elset=WalkBeamSet, generate
 13242,  13379,      1
*Elset, elset=Corroded_Sheet
  1850,  5254,  5255,  5256,  5257,  5258,  5259,  5260,  5261,  5262,  5263,  5264,  5265,  5266,  5267,  5268
  5269,  5270,  5271,  5272,  5273,  5274,  5275,  5276,  5277,  5278,  5279,  5280,  5281,  5282,  5283,  5284
  5285,  5286,  5287,  5288,  5289,  5290,  5291,  5292,  5293,  5294,  5295,  5296,  5297,  5298,  5299,  5300
  5301,  5302,  5303,  5304,  5305,  5306,  5307,  5308,  5309,  5310,  5311,  5312,  5313,  5314,  5315,  5316
  5317,  5318,  5319,  5320,  5321,  5322,  5323,  5324,  5325,  5326,  5327,  5328,  5329,  5330,  5331,  5332
  5333,  5334,  5335,  5336,  5337,  5359,  5360,  5361,  5362,  5363,  5364,  5386,  5387,  5388,  5389,  5390
  5391,  5413,  5414,  5415,  5416,  5417,  5418,  5440,  5441,  5442,  5443,  5444,  5445,  5467,  5468,  5469
  5470,  5471,  5472,  5494,  5495,  5496,  5497,  5498,  5499,  5521,  5522,  5523,  5524,  5525,  5526,  5548
  5549,  5550,  5551,  5552,  5553,  5575,  5576,  5577,  5578,  5579,  5580,  5602,  5603,  5604,  5605,  5606
  5607,  5629,  5630,  5631,  5632,  5633,  5634,  5656,  5657,  5658,  5659,  5660,  5661,  5683,  5684,  5685
  5686,  5687,  5688,  5710,  5711,  5712,  5713,  5714,  5715,  5737,  5738,  5739,  5740,  5741,  5742,  5764
  5765,  5766,  5767,  5768,  5769,  5791,  5792,  5793,  5794,  5795,  5796,  5818,  5819,  5820,  5821,  5822
  5823,  5845,  5846,  5847,  5848,  5849,  5850,  5872,  5873,  5874,  5875,  5876,  5877,  5899,  5900,  5901
  5902,  5903,  5904,  5926,  5927,  5928,  5929,  5930,  5931,  5953,  5954,  5955,  5956,  5957,  5958,  5980
  5981,  5982,  5983,  5984,  5985,  6007,  6008,  6009,  6010,  6011,  6012,  6034,  6035,  6036,  6037,  6038
  6039,  6061,  6062,  6063,  6064,  6065,  6066,  6088,  6089,  6090,  6091,  6092,  6093,  6115,  6116,  6117
  6118,  6119,  6120,  6142,  6143,  6144,  6145,  6146,  6147,  6169,  6170,  6171,  6172,  6173,  6174,  6196
  6197,  6198,  6199,  6200,  6201,  6223,  6224,  6225,  6226,  6227,  6228,  6250,  6251,  6252,  6253,  6254
  6255,  6277,  6278,  6279,  6280,  6281,  6282,  6304,  6305,  6306,  6307,  6308,  6309,  6331,  6332,  6333
  6334,  6335,  6336,  6358,  6359,  6360,  6361,  6362,  6363,  6385,  6386,  6387,  6388,  6389,  6390,  6412
** ... 54 like lines cut
** Section: I-Beam
*Shell Section, elset=I-BeamSet, material=Material-1
0.281077, 5
** Section: Frame
*Shell Section, elset=FrameSet, material=Material-1
0.321043, 5
** Region: (RibSheet:RibSheetSet)
*Elset, elset=_I3, internal
  1285,  1286,  1287,  1288,  1289,  1290,  1291,  1292,  1293,  1294,  1295,  1296,  1297,  1298,  1299,  1300
  1301,  1302,  1303,  1304,  1305,  1306,  1307,  1308,  1309,  1310,  1311,  1312,  1313,  1314,  1315,  1316
  1317,  1318,  1319,  1320,  1321,  1322,  1323,  1324,  1325,  1326,  1327,  1328,  1329,  1330,  1331,  1332
  1333,  1334,  1335,  1336,  1337,  1338,  1339,  1340,  1341,  1342,  1343,  1344,  1345,  1346,  1347,  1348
  1349,  1350,  1351,  1352,  1353,  1354,  1355,  1356,  1357,  1358,  1359,  1360,  1361,  1362,  1363,  1364
  1365,  1366,  1367,  1368,  1369,  1370,  1371,  1372,  1373,  1374,  1375,  1376,  1377,  1378,  1379,  1380
  1381,  1382,  1383,  1384,  1385,  1386,  1387,  1388,  1389,  1390,  1391,  1392,  1393,  1394,  1395,  1396
  1397,  1398,  1399,  1400,  1401,  1402,  1403,  1404,  1405,  1406,  1407,  1408,  1409,  1410,  1411,  1412
  1413,  1414,  1415,  1416,  1417,  1418,  1419,  1420,  1421,  1422,  1423,  1424,  1425,  1426,  1427,  1428
  1429,  1430,  1431,  1432,  1433,  1434,  1435,  1436,  1437,  1438,  1439,  1440,  1441,  1442,  1443,  1444
  1445,  1446,  1447,  1448,  1449,  1450,  1451,  1452,  1453,  1454,  1455,  1456,  1457,  1458,  1459,  1460
  1461,  1462,  1463,  1464,  1465,  1466,  1467,  1468,  1469,  1470,  1471,  1472,  1473,  1474,  1475,  1476
  1477,  1478,  1479,  1480,  1481,  1482,  1483,  1484,  1485,  1486,  1487,  1488,  1489,  1490,  1491,  1492
  1493,  1494,  1495,  1496,  1497,  1498,  1499,  1500,  1501,  1502,  1503,  1504,  1505,  1506,  1507,  1508
  1509,  1510,  1511,  1512,  1513,  1514,  1515,  1516,  1517,  1518,  1519,  1520,  1521,  1522,  1523,  1524
  1525,  1526,  1527,  1528,  1529,  1530,  1531,  1532,  1533,  1534,  1535,  1536,  1537,  1538,  1539,  1540
  1541,  1542,  1543,  1544,  1545,  1546,  1547,  1548,  1549,  1550,  1551,  1552,  1553,  1554,  1555,  1556
  1557,  1558,  1559,  1560,  1561,  1562,  1563,  1564,  1565,  1566,  1567,  1568,  1569,  1570,  1571,  1572
  1573,  1574,  1575,  1576,  1577,  1578,  1579,  1580,  1581,  1582,  1583,  1584,  1585,  1586,  1587,  1588
  1589,  1590,  1591,  1592,  1593,  1594,  1595,  1596,  1597,  1598,  1599,  1600,  1601,  1602,  1603,  1604
** ... 420 like lines cut
** Section: RibSheet
*Shell Section, elset=_I3, material=Material-1
0.0694053, 5
** Section: RibSheet_Corroded
*Shell Section, elset=Corroded_Sheet, material=Material-Corroded
0.0694053, 5
** Section: ColA
*Shell Section, elset=ColA, material=Material-1
0.209156, 5
** Section: Frame
*Shell Section, elset=FrameTip, material=Material-1
0.321043, 5
** Section: ColTop
*Shell Section, elset=ColTop, material=Material-1
0.227339, 5
** Section: Base
*Shell Section, elset=BaseSet, material=Material-1
2., 5
** Section: WalkSheet  Profile: Profile-3
*Beam Section, elset=WalkSheetSet, material=Material-1, temperature=GRADIENTS, section=RECT
25., 0.1
0.,0.,-1.
** Section: WalkBeam  Profile: Profile-2
*Beam Section, elset=WalkBeamSet, material=Material-1, temperature=GRADIENTS, section=RECT
1., 1.
0.,0.,-1.
** Section: L-Beam  Profile: Profile-1
*Beam Section, elset=L-BeamSet, material=Material-1, temperature=GRADIENTS, section=L
4., 4., 0.25, 0.25
0.,0.,-1.
*End Part
**  
**
** ASSEMBLY
**
*Assembly, name=Assembly
**  
*Instance, name=Part-1-1, part=Part-1
*End Instance
**  
*Nset, nset=BaseMeshNode, instance=Part-1-1
   620,   621,   639,   640,   641,   642,   644,   645,   646,   648,   650,   653,   656,   657,   809,   810
   811,  8476,  8477,  8478,  8674,  8675,  8676,  8677,  8678,  8679,  8680,  8681,  8682,  8683,  8684,  8685
  8686,  8687,  8688,  8689,  8690,  8691,  8692,  8693,  8694,  8695,  8696,  8697,  8698,  8699,  8840,  8841
  8842,  9117,  9118,  9259,  9260,  9261,  9370,  9371,  9372,  9515,  9516,  9933,  9934, 10075, 10076, 10077
 10078, 10079, 10857, 10858, 10859, 10860, 10861, 10862, 10871, 10872, 10873, 10874, 10875, 10876, 10877, 10878
 10879, 10880, 10881, 10882, 10883, 10884, 10885, 10886, 10892, 10893, 10894, 10895, 10896, 10897, 10898, 10899
 12697, 12698, 12699, 12700, 12701, 12702, 12703, 12704, 12705, 12706, 12707, 12708, 12709, 12710, 12711, 12712
 12713, 12714, 12715, 12716, 12717, 12718, 12719, 12720, 12721, 12722, 12723, 12724, 12725, 12726, 12727, 12728
 12729, 12730, 12731, 12732, 12733, 12734, 18765, 18766, 18767, 18768, 18769, 18770, 18771, 18772, 18773, 18774
 18775, 18776, 18777, 18778, 18779, 18780, 18781, 18782, 18783, 18784, 18785, 18786, 18787, 18788, 18789, 18790
 18791, 18792, 18793, 18794, 18795, 18796, 18797, 18798, 18799, 18800, 18801, 18802, 18803, 18804, 18805, 18806
 18807, 18808, 18809, 18810, 18811, 18812, 18813, 18814, 18815, 18816, 18817, 18818, 18819, 18820, 18821, 18822
 18823, 18824, 18825, 18826, 18827, 18828, 18829, 18830, 18831, 18832, 18833, 18834, 18835, 18836, 18837, 18838
 18839, 18840, 18841, 18842, 18843, 18844, 18845, 18846, 18847, 18848, 18849, 18850, 18851, 18852, 18853, 18854
 18855, 18856, 18857, 18858, 18859, 18860, 18861, 18862, 18863, 18864, 18865, 18866, 18867, 18868, 18869, 18870
 18871, 18872, 18873, 18874, 18875, 18876, 18877, 18878, 18879, 18880, 18881, 18882, 18883, 18884, 18885, 18886
 18887, 18888, 18889, 18890, 18891, 18892, 18893, 18894, 18895, 18896, 18897, 18898, 18899, 18900, 18901, 18902
 18903, 18904, 18905, 18906, 18907, 18908, 18909, 18910, 18911, 18912, 18913, 18914, 18915, 18916, 18917, 18918
*Nset, nset=Set-1, instance=Part-1-1
 645, 646, 650, 653
*Nset, nset=Set-2, instance=Part-1-1
 620, 621, 640, 641, 644, 645, 646, 648, 650, 653, 656, 657
*Nset, nset=Set-4, instance=Part-1-1
 628, 629
*Nset, nset=Set-5, instance=Part-1-1
 625, 630
*Nset, nset=VerticalPointLoadSet, instance=Part-1-1
 630,
*Elset, elset=_Surf-1_SPOS, internal, instance=Part-1-1
  5281,  5282,  5283,  5284,  5285,  5286,  5287,  5288,  5289,  5290,  5291,  5292,  5293,  5294,  5295,  5296
  5297,  5298,  5299,  5300,  5301,  5302,  5303,  5304,  5305,  5306,  5307,  5362,  5363,  5364,  5365,  5366
  5367,  5368,  5369,  5370,  5371,  5372,  5373,  5374,  5375,  5376,  5377,  5378,  5379,  5380,  5381,  5382
  5383,  5384,  5385,  5386,  5387,  5388,  5443,  5444,  5445,  5446,  5447,  5448,  5449,  5450,  5451,  5452
  5453,  5454,  5455,  5456,  5457,  5458,  5459,  5460,  5461,  5462,  5463,  5464,  5465,  5466,  5467,  5468
  5469,  5524,  5525,  5526,  5527,  5528,  5529,  5530,  5531,  5532,  5533,  5534,  5535,  5536,  5537,  5538
  5539,  5540,  5541,  5542,  5543,  5544,  5545,  5546,  5547,  5548,  5549,  5550,  5605,  5606,  5607,  5608
  5609,  5610,  5611,  5612,  5613,  5614,  5615,  5616,  5617,  5618,  5619,  5620,  5621,  5622,  5623,  5624
  5625,  5626,  5627,  5628,  5629,  5630,  5631,  5686,  5687,  5688,  5689,  5690,  5691,  5692,  5693,  5694
  5695,  5696,  5697,  5698,  5699,  5700,  5701,  5702,  5703,  5704,  5705,  5706,  5707,  5708,  5709,  5710
  5711,  5712,  5767,  5768,  5769,  5770,  5771,  5772,  5773,  5774,  5775,  5776,  5777,  5778,  5779,  5780
  5781,  5782,  5783,  5784,  5785,  5786,  5787,  5788,  5789,  5790,  5791,  5792,  5793,  5848,  5849,  5850
  5851,  5852,  5853,  5854,  5855,  5856,  5857,  5858,  5859,  5860,  5861,  5862,  5863,  5864,  5865,  5866
  5867,  5868,  5869,  5870,  5871,  5872,  5873,  5874,  5929,  5930,  5931,  5932,  5933,  5934,  5935,  5936
  5937,  5938,  5939,  5940,  5941,  5942,  5943,  5944,  5945,  5946,  5947,  5948,  5949,  5950,  5951,  5952
  5953,  5954,  5955,  6010,  6011,  6012,  6013,  6014,  6015,  6016,  6017,  6018,  6019,  6020,  6021,  6022
  6023,  6024,  6025,  6026,  6027,  6028,  6029,  6030,  6031,  6032,  6033,  6034,  6035,  6036,  6091,  6092
  6093,  6094,  6095,  6096,  6097,  6098,  6099,  6100,  6101,  6102,  6103,  6104,  6105,  6106,  6107,  6108
  6109,  6110,  6111,  6112,  6113,  6114,  6115,  6116,  6117,  6172,  6173,  6174,  6175,  6176,  6177,  6178
  6179,  6180,  6181,  6182,  6183,  6184,  6185,  6186,  6187,  6188,  6189,  6190,  6191,  6192,  6193,  6194
** ... 140 like lines cut
*Elset, elset=_Surf-1_SNEG, internal, instance=Part-1-1, generate
 16281,  18101,      1
*Surface, type=ELEMENT, name=Surf-1
_Surf-1_SPOS, SPOS
_Surf-1_SNEG, SNEG
*End Assembly
** 
** MATERIALS
** 
*Material, name=Material-1
*Density
 0.000686119,
*Elastic
 2.36311e+07, 0.281567
*Plastic
36300.,     0.
75000., 0.2287
*Material, name=Material-Corroded
*Density
 0.0007487,
*Elastic
 8.18842e+06, 0.26
*Plastic
36300.,     0.
75000., 0.2287
** ----------------------------------------------------------------
** 
** STEP: Step-1
** 
*Step, name=Step-1, nlgeom=YES
*Static
1., 1., 1e-05, 1.
** 
** BOUNDARY CONDITIONS
** 
** Name: BC-1 Type: Displacement/Rotation
*Boundary
Set-2, 1, 1
Set-2, 2, 2
Set-2, 3, 3
Set-2, 4, 4
Set-2, 5, 5
Set-2, 6, 6
** 
** LOADS
** 
** Name: Load-1   Type: Gravity
*Dload
, GRAV, 386., 0., 0., -1.
** 
** OUTPUT REQUESTS
** 
*Restart, write, frequency=0
** 
** FIELD OUTPUT: F-Output-1
** 
*Output, field, variable=PRESELECT
** 
** HISTORY OUTPUT: H-Output-1
** 
*Output, history, variable=PRESELECT
*End Step
