model  -ndm 3 -ndf 6

geomTransf Linear 1 -1 0 0 
geomTransf PDelta 3 -1 0 0 
geomTransf Corotational 5 -1 0 0 
geomTransf Linear 2 0 0 1 
geomTransf PDelta 4 0 0 1 
geomTransf Corotational 6 0 0 1 

node 1 150000.0 -8025.0 -20000.0 
node 2 150000.0 -20062.5 12000.0 
node 3 150000.0 0.0 90000.0 
node 4 150000.0 8025.0 -20000.0 
node 5 150000.0 20062.5 12000.0 
node 6 150000.0 0.0 115000.0 
node 7 450000.0 -8025.0 -20000.0 
node 8 450000.0 -20062.5 12000.0 
node 9 450000.0 0.0 90000.0 
node 10 450000.0 8025.0 -20000.0 
node 11 450000.0 20062.5 12000.0 
node 12 450000.0 0.0 115000.0 
node 13 140360.0 -16040.0 -20000.0 
node 14 140360.0 -16040.0 -28000.0 
node 15 140360.0 -16040.0 -36000.0 
node 16 140360.0 -16040.0 -44000.0 
node 17 140360.0 -16040.0 -52000.0 
node 18 140360.0 -16040.0 -60000.0 
node 19 140360.0 -12030.0 -20000.0 
node 20 140360.0 -12030.0 -28000.0 
# ... 2470 like lines cut
fix 18 1 1 1 1 1 1 
fix 24 1 1 1 1 1 1 
fix 30 1 1 1 1 1 1 
fix 36 1 1 1 1 1 1 
fix 42 1 1 1 1 1 1 
fix 48 1 1 1 1 1 1 
fix 54 1 1 1 1 1 1 
fix 60 1 1 1 1 1 1 
fix 66 1 1 1 1 1 1 
fix 72 1 1 1 1 1 1 
fix 78 1 1 1 1 1 1 
fix 84 1 1 1 1 1 1 
fix 90 1 1 1 1 1 1 
fix 96 1 1 1 1 1 1 
fix 102 1 1 1 1 1 1 
fix 108 1 1 1 1 1 1 
fix 114 1 1 1 1 1 1 
fix 120 1 1 1 1 1 1 
fix 126 1 1 1 1 1 1 
fix 132 1 1 1 1 1 1 
# ... 560 like lines cut
element elasticBeamColumn 1 13 14 2250000.0 2534.56354148831 1056.0681422868 712968750000.0 421875000000.0 421875000000.0 1 
element elasticBeamColumn 2 14 15 2250000.0 2534.56354148831 1056.0681422868 712968750000.0 421875000000.0 421875000000.0 1 
element elasticBeamColumn 3 15 16 2250000.0 2534.56354148831 1056.0681422868 712968750000.0 421875000000.0 421875000000.0 1 
element elasticBeamColumn 4 16 17 2250000.0 2534.56354148831 1056.0681422868 712968750000.0 421875000000.0 421875000000.0 1 
element elasticBeamColumn 5 17 18 2250000.0 2534.56354148831 1056.0681422868 712968750000.0 421875000000.0 421875000000.0 1 
element elasticBeamColumn 6 19 20 2250000.0 2534.56354148831 1056.0681422868 712968750000.0 421875000000.0 421875000000.0 1 
element elasticBeamColumn 7 20 21 2250000.0 2534.56354148831 1056.0681422868 712968750000.0 421875000000.0 421875000000.0 1 
element elasticBeamColumn 8 21 22 2250000.0 2534.56354148831 1056.0681422868 712968750000.0 421875000000.0 421875000000.0 1 
element elasticBeamColumn 9 22 23 2250000.0 2534.56354148831 1056.0681422868 712968750000.0 421875000000.0 421875000000.0 1 
element elasticBeamColumn 10 23 24 2250000.0 2534.56354148831 1056.0681422868 712968750000.0 421875000000.0 421875000000.0 1 
element elasticBeamColumn 11 25 26 2250000.0 2534.56354148831 1056.0681422868 712968750000.0 421875000000.0 421875000000.0 1 
element elasticBeamColumn 12 26 27 2250000.0 2534.56354148831 1056.0681422868 712968750000.0 421875000000.0 421875000000.0 1 
element elasticBeamColumn 13 27 28 2250000.0 2534.56354148831 1056.0681422868 712968750000.0 421875000000.0 421875000000.0 1 
element elasticBeamColumn 14 28 29 2250000.0 2534.56354148831 1056.0681422868 712968750000.0 421875000000.0 421875000000.0 1 
element elasticBeamColumn 15 29 30 2250000.0 2534.56354148831 1056.0681422868 712968750000.0 421875000000.0 421875000000.0 1 
element elasticBeamColumn 16 31 32 2250000.0 2534.56354148831 1056.0681422868 712968750000.0 421875000000.0 421875000000.0 1 
element elasticBeamColumn 17 32 33 2250000.0 2534.56354148831 1056.0681422868 712968750000.0 421875000000.0 421875000000.0 1 
element elasticBeamColumn 18 33 34 2250000.0 2534.56354148831 1056.0681422868 712968750000.0 421875000000.0 421875000000.0 1 
element elasticBeamColumn 19 34 35 2250000.0 2534.56354148831 1056.0681422868 712968750000.0 421875000000.0 421875000000.0 1 
element elasticBeamColumn 20 35 36 2250000.0 2534.56354148831 1056.0681422868 712968750000.0 421875000000.0 421875000000.0 1 
# ... 828 like lines cut
nDMaterial ElasticIsotropic 1 2833.72824486 0.2 
nDMaterial PlateFiber 2 1 
section PlateFiber 3 2 250.0 
nDMaterial ElasticIsotropic 4 2833.72824486 0.2 
nDMaterial PlateFiber 5 4 
section PlateFiber 6 5 750.0 
nDMaterial ElasticIsotropic 7 2833.72824486 0.2 
nDMaterial PlateFiber 8 7 
section PlateFiber 9 8 1666.66666666667 
nDMaterial ElasticIsotropic 10 2833.72824486 0.2 
nDMaterial PlateFiber 11 10 
section PlateFiber 12 11 6015.0 
element ShellMITC4 849 73 19 13 67 12 
element ShellMITC4 850 79 25 19 73 12 
element ShellMITC4 851 85 31 25 79 12 
element ShellMITC4 852 91 37 31 85 12 
element ShellMITC4 853 1424 560 558 1426 3 
element ShellMITC4 854 560 659 1432 558 3 
element ShellMITC4 855 97 43 37 91 12 
element ShellMITC4 856 103 49 43 97 12 
element ShellMITC4 857 109 55 49 103 12 
element ShellMITC4 858 115 61 55 109 12 
element ShellMITC4 859 127 73 67 121 12 
element ShellMITC4 860 1 79 73 127 12 
element ShellMITC4 861 139 85 79 1 12 
element ShellMITC4 862 145 91 85 139 12 
element ShellMITC4 863 151 97 91 145 12 
element ShellMITC4 864 4 103 97 151 12 
element ShellMITC4 865 163 109 103 4 12 
element ShellMITC4 866 169 115 109 163 12 
element ShellMITC4 867 181 127 121 175 12 
element ShellMITC4 868 187 1 127 181 12 
# ... 1426 like lines cut
mass 1 37.051442982612315 37.051442982612315 37.051442982612315 
mass 2 17.55907259770763 17.55907259770763 17.55907259770763 
mass 3 27.388722855018642 27.388722855018642 27.388722855018642 
mass 4 37.05144298261231 37.05144298261231 37.05144298261231 
mass 5 17.55907259770763 17.55907259770763 17.55907259770763 
mass 6 12.403849307058652 12.403849307058652 12.403849307058652 
mass 7 37.051442982612315 37.051442982612315 37.051442982612315 
mass 8 17.55907259770763 17.55907259770763 17.55907259770763 
mass 9 27.388722855018642 27.388722855018642 27.388722855018642 
mass 10 37.05144298261231 37.05144298261231 37.05144298261231 
mass 11 17.55907259770763 17.55907259770763 17.55907259770763 
mass 12 12.403849307058652 12.403849307058652 12.403849307058652 
mass 13 9.326415887984732 9.326415887984732 9.326415887984732 
mass 14 4.410257531398632 4.410257531398632 4.410257531398632 
mass 15 4.410257531398632 4.410257531398632 4.410257531398632 
mass 16 4.410257531398632 4.410257531398632 4.410257531398632 
mass 17 4.410257531398632 4.410257531398632 4.410257531398632 
mass 18 2.205128765699316 2.205128765699316 2.205128765699316 
mass 19 16.447703010270146 16.447703010270146 16.447703010270146 
mass 20 4.410257531398632 4.410257531398632 4.410257531398632 
# ... 2470 like lines cut



