model basic -ndm 3 -ndf 1

#
# nodes
#

node     2491    10.515374   -74.480042   137.000000
node     2492    16.536798   -69.730530   129.000351
node     2493    22.292700   -63.844398   121.565491
node     2494    27.362597   -58.182430   113.487938
node     2495    31.997505   -51.614719   105.870255
node     2496    36.317516   -43.281498   100.000000
node     2497    19.721977   -68.130310   137.000000
node     2498    24.745819   -63.608990   129.083267
node     2499    29.601303   -58.134708   121.666122
node     2500    33.712471   -52.870316   113.666534
node     2501    37.350334   -46.824711   106.078552
node     2502    40.813580   -39.070469   100.000000
node     2503    28.035704   -60.649517   137.000000
node     2504    32.146690   -56.503788   129.166016
node     2505    36.181515   -51.564968   121.765373
node     2506    39.429958   -46.828892   113.846077
node     2507    42.167683   -41.426373   106.292130
node     2508    44.824474   -34.395004   100.000000
node     2509    35.318542   -52.161846   137.000000
node     2510    38.622482   -48.520458   129.248489
# ... 813 like lines cut
#
# material water
#

set water 3
nDMaterial AcousticMedium $water 2.069857690E+09 1000

#
# elements reservoir
#

element AC3D8     1761     2491     2492     2498     2497     2545     2546     2552     2551 $water
element AC3D8     1762     2492     2493     2499     2498     2546     2547     2553     2552 $water
element AC3D8     1763     2493     2494     2500     2499     2547     2548     2554     2553 $water
element AC3D8     1764     2494     2495     2501     2500     2548     2549     2555     2554 $water
element AC3D8     1765     2495     2496     2502     2501     2549     2550     2556     2555 $water
element AC3D8     1766     2497     2498     2504     2503     2551     2552     2558     2557 $water
element AC3D8     1767     2498     2499     2505     2504     2552     2553     2559     2558 $water
element AC3D8     1768     2499     2500     2506     2505     2553     2554     2560     2559 $water
element AC3D8     1769     2500     2501     2507     2506     2554     2555     2561     2560 $water
element AC3D8     1770     2501     2502     2508     2507     2555     2556     2562     2561 $water
element AC3D8     1771     2503     2504     2510     2509     2557     2558     2564     2563 $water
element AC3D8     1772     2504     2505     2511     2510     2558     2559     2565     2564 $water
element AC3D8     1773     2505     2506     2512     2511     2559     2560     2566     2565 $water
element AC3D8     1774     2506     2507     2513     2512     2560     2561     2567     2566 $water
element AC3D8     1775     2507     2508     2514     2513     2561     2562     2568     2567 $water
element AC3D8     1776     2509     2510     2516     2515     2563     2564     2570     2569 $water
element AC3D8     1777     2510     2511     2517     2516     2564     2565     2571     2570 $water
element AC3D8     1778     2511     2512     2518     2517     2565     2566     2572     2571 $water
element AC3D8     1779     2512     2513     2519     2518     2566     2567     2573     2572 $water
element AC3D8     1780     2513     2514     2520     2519     2567     2568     2574     2573 $water
# ... 556 like lines cut
#
# Acoustic-structure interface element
#

element ASI3D8     2337     196     204     205     197    2875    2931    2932    2876
element ASI3D8     2338     195     203     204     196    2874    2930    2931    2875
element ASI3D8     2339     194     202     203     195    2873    2929    2930    2874
element ASI3D8     2340       1      18      17       2    2491    2492    2498    2497
element ASI3D8     2341       2      17      16       3    2497    2498    2504    2503
element ASI3D8     2342     193     201     202     194    2872    2928    2929    2873
element ASI3D8     2343       3      16      15       4    2503    2504    2510    2509
element ASI3D8     2344       4      15      14       5    2509    2510    2516    2515
element ASI3D8     2345       5      14      13       6    2515    2516    2522    2521
element ASI3D8     2346       6      13      12       7    2521    2522    2528    2527
element ASI3D8     2347     192     200     201     193    2871    2927    2928    2872
element ASI3D8     2348       7      12      11       8    2527    2528    2534    2533
element ASI3D8     2349       8      11      10       9    2533    2534    2540    2539
element ASI3D8     2350       9      10     198     190    2539    2540    2925    2869
element ASI3D8     2351     190     198     199     191    2869    2925    2926    2870
element ASI3D8     2352     191     199     200     192    2870    2926    2927    2871
element ASI3D8     2353      18      27      26      17    2492    2493    2499    2498
element ASI3D8     2354      17      26      25      16    2498    2499    2505    2504
element ASI3D8     2355     204     212     213     205    2931    2987    2988    2932
element ASI3D8     2356     203     211     212     204    2930    2986    2987    2931
# ... 76 like lines cut
#
# viscous boundary element
#

element AV3D4     3245     2922     2921     2977     2978 $water
element AV3D4     3246     2923     2922     2978     2979 $water
element AV3D4     3247     2924     2923     2979     2980 $water
element AV3D4     3248     2920     2919     2975     2976 $water
element AV3D4     3249     2921     2920     2976     2977 $water
element AV3D4     3250     2918     2917     2973     2974 $water
element AV3D4     3251     2919     2918     2974     2975 $water
element AV3D4     3252     2857     2858     2864     2863 $water
element AV3D4     3253     2917     2863     2864     2973 $water
element AV3D4     3254     2851     2852     2858     2857 $water
element AV3D4     3255     2845     2846     2852     2851 $water
element AV3D4     3256     2839     2840     2846     2845 $water
element AV3D4     3257     2833     2834     2840     2839 $water
element AV3D4     3258     2979     2978     3034     3035 $water
element AV3D4     3259     2980     2979     3035     3036 $water
element AV3D4     3260     2978     2977     3033     3034 $water
element AV3D4     3261     2827     2828     2834     2833 $water
element AV3D4     3262     2977     2976     3032     3033 $water
element AV3D4     3263     2821     2822     2828     2827 $water
element AV3D4     3264     2975     2974     3030     3031 $water
# ... 76 like lines cut


parameter 3 element 1761  material rho

for { set ii 1762 } { $ii<= 2336} {incr ii} {

addToParameter 3 -element $ii -material rho

}

for { set ii 3245 } { $ii<= 3340} {incr ii} {

addToParameter 3 -element $ii -material rho

}



#
# boundary condition
#

fix 2491 1
fix 2497 1
fix 2503 1
fix 2509 1
fix 2515 1
fix 2521 1
fix 2527 1
fix 2533 1
fix 2539 1
fix 2545 1
fix 2551 1
fix 2557 1
fix 2563 1
fix 2569 1
fix 2575 1
fix 2581 1
fix 2587 1
fix 2593 1
fix 2599 1
fix 2605 1
# ... 99 like lines cut

