model basic -ndm 3 -ndf 3

#
# nodes
#

node        1    10.515374   -74.480042   137.000000
node        2    19.721977   -68.130310   137.000000
node        3    28.035704   -60.649517   137.000000
node        4    35.318542   -52.161846   137.000000
node        5    41.449589   -42.808205   137.000000
node        6    46.327057   -32.743874   137.000000
node        7    49.869968   -22.135956   137.000000
node        8    52.019516   -11.160533   137.000000
node        9    52.740002     0.000015   137.000000
node       10    54.073669     0.000015   129.654419
node       11    53.446594   -10.367327   129.574219
node       12    51.544193   -20.555914   129.493561
node       13    48.400864   -30.409668   129.412354
node       14    44.069874   -39.778515   129.330643
node       15    38.622482   -48.520458   129.248489
node       16    32.146690   -56.503788   129.166016
node       17    24.745817   -63.608994   129.083267
node       18    16.536798   -69.730530   129.000351
node       19    55.628826     0.000014   122.351738
node       20    55.075840    -9.432137   122.250557
# ... 2470 like lines cut
#
# material concrete
#
#
# define gravity load
#
set rho 2400
set g   9.8


set gx 0.0
set gy 0.0
#set gz 0.0

set gz [expr -1.0*$rho*$g]


#
# define material
#

set conc 1
#     CapPlasticity $tag $ndm  $rho             $G          $K          $X     $D        
nDMaterial TruncatedDP 1     3    2400      [expr 1.2931e+10*$perturb]    1.4706e+10    0.2881     2.1634e+6  -1.43e+6  1.0e-8


 

element bbarBrickWithSensitivity        1        1        2       17       18       55       56       71       72 $conc $gx $gy $gz
element bbarBrickWithSensitivity        2        2        3       16       17       56       57       70       71 $conc $gx $gy $gz
element bbarBrickWithSensitivity        3        3        4       15       16       57       58       69       70 $conc $gx $gy $gz
element bbarBrickWithSensitivity        4        4        5       14       15       58       59       68       69 $conc $gx $gy $gz
element bbarBrickWithSensitivity        5        5        6       13       14       59       60       67       68 $conc $gx $gy $gz
element bbarBrickWithSensitivity        6        6        7       12       13       60       61       66       67 $conc $gx $gy $gz
element bbarBrickWithSensitivity        7        7        8       11       12       61       62       65       66 $conc $gx $gy $gz
element bbarBrickWithSensitivity        8        8        9       10       11       62       63       64       65 $conc $gx $gy $gz
element bbarBrickWithSensitivity        9       18       17       26       27       72       71       80       81 $conc $gx $gy $gz
element bbarBrickWithSensitivity       10       17       16       25       26       71       70       79       80 $conc $gx $gy $gz
element bbarBrickWithSensitivity       11       16       15       24       25       70       69       78       79 $conc $gx $gy $gz
element bbarBrickWithSensitivity       12       15       14       23       24       69       68       77       78 $conc $gx $gy $gz
element bbarBrickWithSensitivity       13       14       13       22       23       68       67       76       77 $conc $gx $gy $gz
element bbarBrickWithSensitivity       14       13       12       21       22       67       66       75       76 $conc $gx $gy $gz
element bbarBrickWithSensitivity       15       12       11       20       21       66       65       74       75 $conc $gx $gy $gz
element bbarBrickWithSensitivity       16       11       10       19       20       65       64       73       74 $conc $gx $gy $gz
element bbarBrickWithSensitivity       17       27       26       35       36       81       80       89       90 $conc $gx $gy $gz
element bbarBrickWithSensitivity       18       26       25       34       35       80       79       88       89 $conc $gx $gy $gz
element bbarBrickWithSensitivity       19       25       24       33       34       79       78       87       88 $conc $gx $gy $gz
element bbarBrickWithSensitivity       20       24       23       32       33       78       77       86       87 $conc $gx $gy $gz
# ... 172 like lines cut




#
# material rock
#

set rock 2

#nDMaterial ElasticIsotropic $rock 2.0E10 0.25 2750

nDMaterial TruncatedDP 2     3    2700       4.0486e+009    6.2893e+009     0.3115   1.1681e6  -0.8e6  1.0e-8     

#
# element found
#

set grx 0.0
set gry 0.0
set grz 0.0

element bbarBrickWithSensitivity      193      197      245      359      358      205      253      371      370 $rock $grx $gry $grz
element bbarBrickWithSensitivity      194      245      293      360      359      253      301      372      371 $rock $grx $gry $grz
element bbarBrickWithSensitivity      195      358      359      362      361      370      371      374      373 $rock $grx $gry $grz
element bbarBrickWithSensitivity      196      359      360      363      362      371      372      375      374 $rock $grx $gry $grz
element bbarBrickWithSensitivity      197      361      362      365      364      373      374      377      376 $rock $grx $gry $grz
element bbarBrickWithSensitivity      198      362      363      366      365      374      375      378      377 $rock $grx $gry $grz
element bbarBrickWithSensitivity      199      364      365      368      367      376      377      380      379 $rock $grx $gry $grz
element bbarBrickWithSensitivity      200      365      366      369      368      377      378      381      380 $rock $grx $gry $grz
element bbarBrickWithSensitivity      201      205      253      371      370      213      261      383      382 $rock $grx $gry $grz
element bbarBrickWithSensitivity      202      253      301      372      371      261      309      393      383 $rock $grx $gry $grz
element bbarBrickWithSensitivity      203      370      371      374      373      382      383      385      384 $rock $grx $gry $grz
element bbarBrickWithSensitivity      204      371      372      375      374      383      393      386      385 $rock $grx $gry $grz
element bbarBrickWithSensitivity      205      373      374      377      376      384      385      388      387 $rock $grx $gry $grz
element bbarBrickWithSensitivity      206      374      375      378      377      385      386      389      388 $rock $grx $gry $grz
element bbarBrickWithSensitivity      207      376      377      380      379      387      388      391      390 $rock $grx $gry $grz
element bbarBrickWithSensitivity      208      377      378      381      380      388      389      392      391 $rock $grx $gry $grz
element bbarBrickWithSensitivity      209      213      261      383      382      221      269      404      403 $rock $grx $gry $grz
element bbarBrickWithSensitivity      210      261      309      393      383      269      317      405      404 $rock $grx $gry $grz
element bbarBrickWithSensitivity      211      382      383      385      384      403      404      401      400 $rock $grx $gry $grz
element bbarBrickWithSensitivity      212      383      393      386      385      404      405      402      401 $rock $grx $gry $grz
# ... 1548 like lines cut





#
# viscous-spring boundary
#

set E 2.0E10
set G 0.8E10
set rho 2750
set R 125.0
set alphaN 1.33
set alphaT 0.67



element VS3D4     2433      707      706      736      737 $E $G $rho $R $alphaN $alphaT
element VS3D4     2434      708      707      737      738 $E $G $rho $R $alphaN $alphaT
element VS3D4     2435      705      704      734      735 $E $G $rho $R $alphaN $alphaT
element VS3D4     2436      706      705      735      736 $E $G $rho $R $alphaN $alphaT
element VS3D4     2437     1310     1309     1345     1346 $E $G $rho $R $alphaN $alphaT
element VS3D4     2438     1274     1273     1309     1310 $E $G $rho $R $alphaN $alphaT
element VS3D4     2439     1238     1237     1273     1274 $E $G $rho $R $alphaN $alphaT
element VS3D4     2440     1202     1201     1237     1238 $E $G $rho $R $alphaN $alphaT
element VS3D4     2441      737      736      766      767 $E $G $rho $R $alphaN $alphaT
element VS3D4     2442      738      737      767      768 $E $G $rho $R $alphaN $alphaT
element VS3D4     2443      736      735      765      766 $E $G $rho $R $alphaN $alphaT
element VS3D4     2444      735      734      764      765 $E $G $rho $R $alphaN $alphaT
element VS3D4     2445     1311     1310     1346     1347 $E $G $rho $R $alphaN $alphaT
element VS3D4     2446     1275     1274     1310     1311 $E $G $rho $R $alphaN $alphaT
element VS3D4     2447     1239     1238     1274     1275 $E $G $rho $R $alphaN $alphaT
element VS3D4     2448     1203     1202     1238     1239 $E $G $rho $R $alphaN $alphaT
element VS3D4     2449      768      767      797      798 $E $G $rho $R $alphaN $alphaT
element VS3D4     2450      767      766      796      797 $E $G $rho $R $alphaN $alphaT
element VS3D4     2451      766      765      795      796 $E $G $rho $R $alphaN $alphaT
element VS3D4     2452      765      764      794      795 $E $G $rho $R $alphaN $alphaT
# ... 792 like lines cut


#


#
# define the recorder
#



recorder Node -file node_dam190$filename.dat -time -precision 16 -node 190 -dof 1 2 3 disp
  

source model_sgk_res_damp_ffd.tcl

pattern Plain 1 {Series -time {0.0  1.0  1000 } -values {0.0  1.0 1.0} } {

load 1  3.3138e5  -4.6246e5  -34594
load 2  7.0611e5  -8.6526e5  -44581
load 3  7.9186e5  -7.52e5  18925
load 4  8.7348e5  -6.4079e5  72166
load 5  9.2877e5  -5.1574e5  1.1449e5
load 6  9.6142e5  -3.8439e5  1.4561e5
load 7  9.7648e5  -2.5331e5  1.6584e5
load 8  9.7453e5  -1.2467e5  1.7574e5
load 9  1.0378e6  9128.5  1.9003e5
load 10  5.9533e6  63608  1.2063e6
load 11  5.4823e6  -6.8565e5  1.0875e6
load 12  5.4383e6  -1.3781e6  9.9554e5
load 13  5.3065e6  -2.0697e6  8.2869e5
load 14  5.0863e6  -2.7494e6  5.8642e5
load 15  4.7644e6  -3.393e6  2.7022e5
load 16  4.3586e6  -4.0002e6  -1.178e5
load 17  3.8961e6  -4.5805e6  -5.727e5
load 18  1.8252e6  -2.4343e6  -3.8939e5
load 19  1.1182e7  1.3088e5  1.6788e6
load 20  1.0173e7  -1.2348e6  1.4763e6
# ... 99 like lines cut
}




constraints Plain;     				                                                              
numberer RCM;					                                                              
system BandGeneral;				                                                             
test NormDispIncr 1.0e-8 25 1; 			                                                              
algorithm Newton;					                                                     
integrator LoadControl 1 1 1 1 ;				                                                     

analysis Static




analyze 1;




#
# boundary condition
#


 

wipeAnalysis


#
# time series
#

timeSeries Path  1 -dt 0.01 -filePath elcentro.txt -factor 1.0

#
# nodal load
#

set loadMag 1E7

pattern Plain 111 1 {
load 556      $loadMag     0.0    0.0 
load 557      $loadMag     0.0    0.0 
load 558      $loadMag     0.0    0.0 
load 559      $loadMag     0.0    0.0 
load 560      $loadMag     0.0    0.0 
load 561      $loadMag     0.0    0.0 
load 562      $loadMag     0.0    0.0 
load 563      $loadMag     0.0    0.0 
load 564      $loadMag     0.0    0.0 
load 565      $loadMag     0.0    0.0 
load 566      $loadMag     0.0    0.0 
load 567      $loadMag     0.0    0.0 
load 568      $loadMag     0.0    0.0 
load 569      $loadMag     0.0    0.0 
load 570      $loadMag     0.0    0.0 
load 595      $loadMag     0.0    0.0 
load 596      $loadMag     0.0    0.0 
load 597      $loadMag     0.0    0.0 
load 598      $loadMag     0.0    0.0 
load 599      $loadMag     0.0    0.0 
# ... 235 like lines cut
 
}


#
# define the recorder
#


# recorder Node -file node_water_pore3205$filename.dat -time -precision 16 -node 3205 -dof 1 disp


